file 74618835 1742963878                                        
version 2
run Exp2DropTailWithPolicingAndShaping-0-20250326-00:37:19-32788
attr configname Exp2DropTailWithPolicingAndShaping
attr datetime 20250326-00:37:19
attr experiment Exp2DropTailWithPolicingAndShaping
attr inifile omnetpp.ini
attr iterationvars ""
attr iterationvarsf ""
attr measurement ""
attr network phasetwo
attr processid 32788
attr repetition 0
attr replication #0
attr resultdir results
attr runnumber 0
attr seedset 0
param **.ppp[*].ppp.queue.typename "\"DropTailQueue\""
param **.eth[*].mac.queue.typename "\"EtherQosQueue\""
param **.eth[*].mac.queue.dataQueue.typename "\"DropTailQueue\""
param **.queue.packetCapacity 100
param **.H?.numApps 3
param **.H1.app[0].typename "\"UdpBasicBurst\""
param **.H1.app[0].destAddresses "\"H2\""
param **.H1.app[0].chooseDestAddrMode "\"once\""
param **.H1.app[0].destPort 1000
param **.H1.app[0].startTime uniform(1s,2s)
param **.H1.app[0].stopTime 1200s
param **.H1.app[0].messageLength 172B
param **.H1.app[0].burstDuration exponential(0.352s)
param **.H1.app[0].sleepDuration exponential(0.650s)
param **.H1.app[0].sendInterval 20ms
param **.H2.app[0].typename "\"UdpBasicBurst\""
param **.H2.app[0].localPort 1000
param **.H2.app[0].delayLimit 0ms
param **.H2.app[0].destAddresses "\"\""
param **.H2.app[0].chooseDestAddrMode "\"once\""
param **.H2.app[0].destPort 0
param **.H2.app[0].messageLength 0B
param **.H2.app[0].burstDuration 0s
param **.H2.app[0].sleepDuration 0s
param **.H2.app[0].sendInterval 0ms
param **.H1.app[1].typename "\"UdpBasicApp\""
param **.H1.app[1].destPort 2000
param **.H1.app[1].startTime uniform(1s,2s)
param **.H1.app[1].stopTime 1200s
param **.H1.app[1].sendInterval 40ms
param **.H1.app[1].messageLength 500B
param **.H1.app[1].destAddresses "\"H2\""
param **.H2.app[1].typename "\"UdpSink\""
param **.H2.app[1].localPort 2000
param **.H1.app[2].typename "\"TcpBasicClientApp\""
param **.H1.app[2].connectAddress "\"H2\""
param **.H1.app[2].connectPort 3000
param **.H1.app[2].numRequestsPerSession 1
param **.H1.app[2].requestLength 50B
param **.H1.app[2].replyLength 100B
param **.H1.app[2].thinkTime 40ms
param **.H1.app[2].idleInterval 10s
param **.H1.app[2].stopTime 1200s
param **.H2.app[2].typename "\"TcpGenericServerApp\""
param **.H2.app[2].localPort 3000
param **.edgeDatarate 32kbps
param **.coreDatarate 16kbps
param **.R1.eth[*].ingressTC.typename "\"TC1\""
param **.R14.eth[*].ingressTC.typename "\"TC1\""
param **.ingressTC.numClasses 3
param **.ingressTC.classifier.filters "xmldoc(\"filters.xml\", \"//experiment[@id='default']\")"
param **.ingressTC.marker.dscps "\"AF11 AF21 AF31 AF41 BE\""
param **.R8.ppp[2].egressTC.typename "\"TrafficConditioner\""
param **.R8.ppp[2].egressTC.efMeter.cir "\"80%\""
param **.R8.ppp[2].egressTC.efMeter.cbs 200KiB
param **.R8.ppp[2].egressTC.defaultMeter.cir "\"30%\""
param **.R8.ppp[2].egressTC.defaultMeter.cbs 200KiB
param **.R8.ppp[2].egressTC.defaultMeter.ebs 50KiB
param **.R9.ppp[0].ingressTC.typename "\"TrafficConditioner\""
param **.R9.ppp[0].ingressTC.efMeter.cir "\"70%\""
param **.R9.ppp[0].ingressTC.efMeter.cbs 100KiB
param **.R9.ppp[0].ingressTC.defaultMeter.cir "\"20%\""
param **.R9.ppp[0].ingressTC.defaultMeter.cbs 100KiB
param **.R9.ppp[0].ingressTC.defaultMeter.ebs 25KiB
param **.queue.typename "\"EtherQosQueue\""
param **.queue.dataQueue.typename "\"DropTailQueue\""
param **.queue.packetCapacity 100
param **.queue.dataQueue.packetCapacity 100
param **.R*.hasOspf true
param **.R*.ospf.ospfConfig "xmldoc(\"OSPFConfig.xml\")"

vector 0 phasetwo.H1.ethg$o[0].channel busy:vector ETV
attr interpolationmode sample-hold
attr source channelBusy
vector 1 phasetwo.H2.ethg$o[0].channel busy:vector ETV
attr interpolationmode sample-hold
attr source channelBusy
vector 2 phasetwo.R1.pppg$o[0].channel busy:vector ETV
attr interpolationmode sample-hold
attr source channelBusy
vector 3 phasetwo.R1.pppg$o[1].channel busy:vector ETV
attr interpolationmode sample-hold
attr source channelBusy
vector 4 phasetwo.R1.ethg$o[0].channel busy:vector ETV
attr interpolationmode sample-hold
attr source channelBusy
vector 5 phasetwo.R2.pppg$o[0].channel busy:vector ETV
attr interpolationmode sample-hold
attr source channelBusy
vector 6 phasetwo.R2.pppg$o[1].channel busy:vector ETV
attr interpolationmode sample-hold
attr source channelBusy
vector 7 phasetwo.R2.pppg$o[2].channel busy:vector ETV
attr interpolationmode sample-hold
attr source channelBusy
vector 8 phasetwo.R3.pppg$o[0].channel busy:vector ETV
attr interpolationmode sample-hold
attr source channelBusy
vector 9 phasetwo.R3.pppg$o[1].channel busy:vector ETV
attr interpolationmode sample-hold
attr source channelBusy
vector 10 phasetwo.R3.pppg$o[2].channel busy:vector ETV
attr interpolationmode sample-hold
attr source channelBusy
vector 11 phasetwo.R4.pppg$o[0].channel busy:vector ETV
attr interpolationmode sample-hold
attr source channelBusy
vector 12 phasetwo.R4.pppg$o[1].channel busy:vector ETV
attr interpolationmode sample-hold
attr source channelBusy
vector 13 phasetwo.R5.pppg$o[0].channel busy:vector ETV
attr interpolationmode sample-hold
attr source channelBusy
vector 14 phasetwo.R5.pppg$o[1].channel busy:vector ETV
attr interpolationmode sample-hold
attr source channelBusy
vector 15 phasetwo.R5.pppg$o[2].channel busy:vector ETV
attr interpolationmode sample-hold
attr source channelBusy
vector 16 phasetwo.R8.pppg$o[0].channel busy:vector ETV
attr interpolationmode sample-hold
attr source channelBusy
vector 17 phasetwo.R8.pppg$o[1].channel busy:vector ETV
attr interpolationmode sample-hold
attr source channelBusy
vector 18 phasetwo.R8.pppg$o[2].channel busy:vector ETV
attr interpolationmode sample-hold
attr source channelBusy
vector 19 phasetwo.R13.pppg$o[0].channel busy:vector ETV
attr interpolationmode sample-hold
attr source channelBusy
vector 20 phasetwo.R13.pppg$o[1].channel busy:vector ETV
attr interpolationmode sample-hold
attr source channelBusy
vector 21 phasetwo.R6.pppg$o[0].channel busy:vector ETV
attr interpolationmode sample-hold
attr source channelBusy
vector 22 phasetwo.R6.pppg$o[1].channel busy:vector ETV
attr interpolationmode sample-hold
attr source channelBusy
vector 23 phasetwo.R6.pppg$o[2].channel busy:vector ETV
attr interpolationmode sample-hold
attr source channelBusy
vector 24 phasetwo.R11.pppg$o[0].channel busy:vector ETV
attr interpolationmode sample-hold
attr source channelBusy
vector 25 phasetwo.R11.pppg$o[1].channel busy:vector ETV
attr interpolationmode sample-hold
attr source channelBusy
vector 26 phasetwo.R11.pppg$o[2].channel busy:vector ETV
attr interpolationmode sample-hold
attr source channelBusy
vector 27 phasetwo.R10.pppg$o[0].channel busy:vector ETV
attr interpolationmode sample-hold
attr source channelBusy
vector 28 phasetwo.R10.pppg$o[1].channel busy:vector ETV
attr interpolationmode sample-hold
attr source channelBusy
vector 29 phasetwo.R10.pppg$o[2].channel busy:vector ETV
attr interpolationmode sample-hold
attr source channelBusy
vector 30 phasetwo.R14.pppg$o[0].channel busy:vector ETV
attr interpolationmode sample-hold
attr source channelBusy
vector 31 phasetwo.R14.pppg$o[1].channel busy:vector ETV
attr interpolationmode sample-hold
attr source channelBusy
vector 32 phasetwo.R14.ethg$o[0].channel busy:vector ETV
attr interpolationmode sample-hold
attr source channelBusy
vector 33 phasetwo.R12.pppg$o[0].channel busy:vector ETV
attr interpolationmode sample-hold
attr source channelBusy
vector 34 phasetwo.R12.pppg$o[1].channel busy:vector ETV
attr interpolationmode sample-hold
attr source channelBusy
vector 35 phasetwo.R12.pppg$o[2].channel busy:vector ETV
attr interpolationmode sample-hold
attr source channelBusy
vector 36 phasetwo.R7.pppg$o[0].channel busy:vector ETV
attr interpolationmode sample-hold
attr source channelBusy
vector 37 phasetwo.R7.pppg$o[1].channel busy:vector ETV
attr interpolationmode sample-hold
attr source channelBusy
vector 38 phasetwo.R9.pppg$o[0].channel busy:vector ETV
attr interpolationmode sample-hold
attr source channelBusy
vector 39 phasetwo.R9.pppg$o[1].channel busy:vector ETV
attr interpolationmode sample-hold
attr source channelBusy
vector 40 phasetwo.R1.ppp[0].ppp transmissionState:vector ETV
attr interpolationmode sample-hold
attr source transmissionStateChanged
attr title "tx state, vector"
vector 41 phasetwo.R1.ppp[1].ppp transmissionState:vector ETV
attr interpolationmode sample-hold
attr source transmissionStateChanged
attr title "tx state, vector"
vector 42 phasetwo.R2.ppp[0].ppp transmissionState:vector ETV
attr interpolationmode sample-hold
attr source transmissionStateChanged
attr title "tx state, vector"
vector 43 phasetwo.R2.ppp[1].ppp transmissionState:vector ETV
attr interpolationmode sample-hold
attr source transmissionStateChanged
attr title "tx state, vector"
vector 44 phasetwo.R2.ppp[2].ppp transmissionState:vector ETV
attr interpolationmode sample-hold
attr source transmissionStateChanged
attr title "tx state, vector"
vector 45 phasetwo.R3.ppp[0].ppp transmissionState:vector ETV
attr interpolationmode sample-hold
attr source transmissionStateChanged
attr title "tx state, vector"
vector 46 phasetwo.R3.ppp[1].ppp transmissionState:vector ETV
attr interpolationmode sample-hold
attr source transmissionStateChanged
attr title "tx state, vector"
vector 47 phasetwo.R3.ppp[2].ppp transmissionState:vector ETV
attr interpolationmode sample-hold
attr source transmissionStateChanged
attr title "tx state, vector"
vector 48 phasetwo.R4.ppp[0].ppp transmissionState:vector ETV
attr interpolationmode sample-hold
attr source transmissionStateChanged
attr title "tx state, vector"
vector 49 phasetwo.R4.ppp[1].ppp transmissionState:vector ETV
attr interpolationmode sample-hold
attr source transmissionStateChanged
attr title "tx state, vector"
vector 50 phasetwo.R5.ppp[0].ppp transmissionState:vector ETV
attr interpolationmode sample-hold
attr source transmissionStateChanged
attr title "tx state, vector"
vector 51 phasetwo.R5.ppp[1].ppp transmissionState:vector ETV
attr interpolationmode sample-hold
attr source transmissionStateChanged
attr title "tx state, vector"
vector 52 phasetwo.R5.ppp[2].ppp transmissionState:vector ETV
attr interpolationmode sample-hold
attr source transmissionStateChanged
attr title "tx state, vector"
vector 53 phasetwo.R8.ppp[0].ppp transmissionState:vector ETV
attr interpolationmode sample-hold
attr source transmissionStateChanged
attr title "tx state, vector"
vector 54 phasetwo.R8.ppp[1].ppp transmissionState:vector ETV
attr interpolationmode sample-hold
attr source transmissionStateChanged
attr title "tx state, vector"
vector 55 phasetwo.R8.ppp[2].ppp transmissionState:vector ETV
attr interpolationmode sample-hold
attr source transmissionStateChanged
attr title "tx state, vector"
vector 56 phasetwo.R13.ppp[0].ppp transmissionState:vector ETV
attr interpolationmode sample-hold
attr source transmissionStateChanged
attr title "tx state, vector"
vector 57 phasetwo.R13.ppp[1].ppp transmissionState:vector ETV
attr interpolationmode sample-hold
attr source transmissionStateChanged
attr title "tx state, vector"
vector 58 phasetwo.R6.ppp[0].ppp transmissionState:vector ETV
attr interpolationmode sample-hold
attr source transmissionStateChanged
attr title "tx state, vector"
vector 59 phasetwo.R6.ppp[1].ppp transmissionState:vector ETV
attr interpolationmode sample-hold
attr source transmissionStateChanged
attr title "tx state, vector"
vector 60 phasetwo.R6.ppp[2].ppp transmissionState:vector ETV
attr interpolationmode sample-hold
attr source transmissionStateChanged
attr title "tx state, vector"
vector 61 phasetwo.R11.ppp[0].ppp transmissionState:vector ETV
attr interpolationmode sample-hold
attr source transmissionStateChanged
attr title "tx state, vector"
vector 62 phasetwo.R11.ppp[1].ppp transmissionState:vector ETV
attr interpolationmode sample-hold
attr source transmissionStateChanged
attr title "tx state, vector"
vector 63 phasetwo.R11.ppp[2].ppp transmissionState:vector ETV
attr interpolationmode sample-hold
attr source transmissionStateChanged
attr title "tx state, vector"
vector 64 phasetwo.R10.ppp[0].ppp transmissionState:vector ETV
attr interpolationmode sample-hold
attr source transmissionStateChanged
attr title "tx state, vector"
vector 65 phasetwo.R10.ppp[1].ppp transmissionState:vector ETV
attr interpolationmode sample-hold
attr source transmissionStateChanged
attr title "tx state, vector"
vector 66 phasetwo.R10.ppp[2].ppp transmissionState:vector ETV
attr interpolationmode sample-hold
attr source transmissionStateChanged
attr title "tx state, vector"
vector 67 phasetwo.R14.ppp[0].ppp transmissionState:vector ETV
attr interpolationmode sample-hold
attr source transmissionStateChanged
attr title "tx state, vector"
vector 68 phasetwo.R14.ppp[1].ppp transmissionState:vector ETV
attr interpolationmode sample-hold
attr source transmissionStateChanged
attr title "tx state, vector"
vector 69 phasetwo.R12.ppp[0].ppp transmissionState:vector ETV
attr interpolationmode sample-hold
attr source transmissionStateChanged
attr title "tx state, vector"
vector 70 phasetwo.R12.ppp[1].ppp transmissionState:vector ETV
attr interpolationmode sample-hold
attr source transmissionStateChanged
attr title "tx state, vector"
vector 71 phasetwo.R12.ppp[2].ppp transmissionState:vector ETV
attr interpolationmode sample-hold
attr source transmissionStateChanged
attr title "tx state, vector"
vector 72 phasetwo.R7.ppp[0].ppp transmissionState:vector ETV
attr interpolationmode sample-hold
attr source transmissionStateChanged
attr title "tx state, vector"
vector 73 phasetwo.R7.ppp[1].ppp transmissionState:vector ETV
attr interpolationmode sample-hold
attr source transmissionStateChanged
attr title "tx state, vector"
vector 74 phasetwo.R9.ppp[0].ppp transmissionState:vector ETV
attr interpolationmode sample-hold
attr source transmissionStateChanged
attr title "tx state, vector"
vector 75 phasetwo.R9.ppp[1].ppp transmissionState:vector ETV
attr interpolationmode sample-hold
attr source transmissionStateChanged
attr title "tx state, vector"
vector 76 phasetwo.R6.ppp[0].ppp rcvdPkFromHl:vector(packetBytes) ETV
attr interpolationmode none
attr source packetReceivedFromUpper
attr title "packets received from higher layer, vector(packetBytes)"
vector 77 phasetwo.R6.ppp[0].ppp.queue packetPushed:vector(packetBytes) ETV
attr interpolationmode none
attr title "packet pushed, vector(packetBytes)"
vector 78 phasetwo.R6.ppp[0].ppp.queue queueLength:vector ETV
attr interpolationmode sample-hold
attr source "count(packetPushed) - count(packetPopped) - count(packetRemoved) - count(packetDropped)"
attr title "queue length, vector"
vector 79 phasetwo.R6.ppp[0].ppp.queue packetPopped:vector(packetBytes) ETV
attr interpolationmode none
attr title "packet popped, vector(packetBytes)"
vector 80 phasetwo.R6.ppp[0].ppp.queue queueingTime:vector ETV
attr interpolationmode none
attr source queueingTime(packetPopped)
attr title "queueing times, vector"
attr unit s
vector 81 phasetwo.R6.ppp[0].ppp txPk:vector(packetBytes) ETV
attr interpolationmode none
attr source packetSentToLower
attr title "packets transmitted, vector(packetBytes)"
vector 82 phasetwo.R11.ppp[2].ppp rcvdPkFromHl:vector(packetBytes) ETV
attr interpolationmode none
attr source packetReceivedFromUpper
attr title "packets received from higher layer, vector(packetBytes)"
vector 83 phasetwo.R11.ppp[2].ppp.queue packetPushed:vector(packetBytes) ETV
attr interpolationmode none
attr title "packet pushed, vector(packetBytes)"
vector 84 phasetwo.R11.ppp[2].ppp.queue queueLength:vector ETV
attr interpolationmode sample-hold
attr source "count(packetPushed) - count(packetPopped) - count(packetRemoved) - count(packetDropped)"
attr title "queue length, vector"
vector 85 phasetwo.R11.ppp[2].ppp.queue packetPopped:vector(packetBytes) ETV
attr interpolationmode none
attr title "packet popped, vector(packetBytes)"
vector 86 phasetwo.R11.ppp[2].ppp.queue queueingTime:vector ETV
attr interpolationmode none
attr source queueingTime(packetPopped)
attr title "queueing times, vector"
attr unit s
vector 87 phasetwo.R11.ppp[2].ppp txPk:vector(packetBytes) ETV
attr interpolationmode none
attr source packetSentToLower
attr title "packets transmitted, vector(packetBytes)"
vector 88 phasetwo.R4.ppp[1].ppp rcvdPkFromHl:vector(packetBytes) ETV
attr interpolationmode none
attr source packetReceivedFromUpper
attr title "packets received from higher layer, vector(packetBytes)"
vector 89 phasetwo.R4.ppp[1].ppp.queue packetPushed:vector(packetBytes) ETV
attr interpolationmode none
attr title "packet pushed, vector(packetBytes)"
vector 90 phasetwo.R4.ppp[1].ppp.queue queueLength:vector ETV
attr interpolationmode sample-hold
attr source "count(packetPushed) - count(packetPopped) - count(packetRemoved) - count(packetDropped)"
attr title "queue length, vector"
vector 91 phasetwo.R4.ppp[1].ppp.queue packetPopped:vector(packetBytes) ETV
attr interpolationmode none
attr title "packet popped, vector(packetBytes)"
vector 92 phasetwo.R4.ppp[1].ppp.queue queueingTime:vector ETV
attr interpolationmode none
attr source queueingTime(packetPopped)
attr title "queueing times, vector"
attr unit s
vector 93 phasetwo.R4.ppp[1].ppp txPk:vector(packetBytes) ETV
attr interpolationmode none
attr source packetSentToLower
attr title "packets transmitted, vector(packetBytes)"
vector 94 phasetwo.R6.ppp[2].ppp rcvdPkFromHl:vector(packetBytes) ETV
attr interpolationmode none
attr source packetReceivedFromUpper
attr title "packets received from higher layer, vector(packetBytes)"
vector 95 phasetwo.R6.ppp[2].ppp.queue packetPushed:vector(packetBytes) ETV
attr interpolationmode none
attr title "packet pushed, vector(packetBytes)"
vector 96 phasetwo.R6.ppp[2].ppp.queue queueLength:vector ETV
attr interpolationmode sample-hold
attr source "count(packetPushed) - count(packetPopped) - count(packetRemoved) - count(packetDropped)"
attr title "queue length, vector"
vector 97 phasetwo.R6.ppp[2].ppp.queue packetPopped:vector(packetBytes) ETV
attr interpolationmode none
attr title "packet popped, vector(packetBytes)"
vector 98 phasetwo.R6.ppp[2].ppp.queue queueingTime:vector ETV
attr interpolationmode none
attr source queueingTime(packetPopped)
attr title "queueing times, vector"
attr unit s
vector 99 phasetwo.R6.ppp[2].ppp txPk:vector(packetBytes) ETV
attr interpolationmode none
attr source packetSentToLower
attr title "packets transmitted, vector(packetBytes)"
vector 100 phasetwo.R2.ppp[1].ppp rcvdPkFromHl:vector(packetBytes) ETV
attr interpolationmode none
attr source packetReceivedFromUpper
attr title "packets received from higher layer, vector(packetBytes)"
vector 101 phasetwo.R2.ppp[1].ppp.queue packetPushed:vector(packetBytes) ETV
attr interpolationmode none
attr title "packet pushed, vector(packetBytes)"
vector 102 phasetwo.R2.ppp[1].ppp.queue queueLength:vector ETV
attr interpolationmode sample-hold
attr source "count(packetPushed) - count(packetPopped) - count(packetRemoved) - count(packetDropped)"
attr title "queue length, vector"
vector 103 phasetwo.R2.ppp[1].ppp.queue packetPopped:vector(packetBytes) ETV
attr interpolationmode none
attr title "packet popped, vector(packetBytes)"
vector 104 phasetwo.R2.ppp[1].ppp.queue queueingTime:vector ETV
attr interpolationmode none
attr source queueingTime(packetPopped)
attr title "queueing times, vector"
attr unit s
vector 105 phasetwo.R2.ppp[1].ppp txPk:vector(packetBytes) ETV
attr interpolationmode none
attr source packetSentToLower
attr title "packets transmitted, vector(packetBytes)"
vector 106 phasetwo.R9.ppp[0].ppp rcvdPkFromHl:vector(packetBytes) ETV
attr interpolationmode none
attr source packetReceivedFromUpper
attr title "packets received from higher layer, vector(packetBytes)"
vector 107 phasetwo.R9.ppp[0].ppp.queue packetPushed:vector(packetBytes) ETV
attr interpolationmode none
attr title "packet pushed, vector(packetBytes)"
vector 108 phasetwo.R9.ppp[0].ppp.queue queueLength:vector ETV
attr interpolationmode sample-hold
attr source "count(packetPushed) - count(packetPopped) - count(packetRemoved) - count(packetDropped)"
attr title "queue length, vector"
vector 109 phasetwo.R9.ppp[0].ppp.queue packetPopped:vector(packetBytes) ETV
attr interpolationmode none
attr title "packet popped, vector(packetBytes)"
vector 110 phasetwo.R9.ppp[0].ppp.queue queueingTime:vector ETV
attr interpolationmode none
attr source queueingTime(packetPopped)
attr title "queueing times, vector"
attr unit s
vector 111 phasetwo.R9.ppp[0].ppp txPk:vector(packetBytes) ETV
attr interpolationmode none
attr source packetSentToLower
attr title "packets transmitted, vector(packetBytes)"
vector 112 phasetwo.R14.ppp[0].ppp rcvdPkFromHl:vector(packetBytes) ETV
attr interpolationmode none
attr source packetReceivedFromUpper
attr title "packets received from higher layer, vector(packetBytes)"
vector 113 phasetwo.R14.ppp[0].ppp.queue packetPushed:vector(packetBytes) ETV
attr interpolationmode none
attr title "packet pushed, vector(packetBytes)"
vector 114 phasetwo.R14.ppp[0].ppp.queue queueLength:vector ETV
attr interpolationmode sample-hold
attr source "count(packetPushed) - count(packetPopped) - count(packetRemoved) - count(packetDropped)"
attr title "queue length, vector"
vector 115 phasetwo.R14.ppp[0].ppp.queue packetPopped:vector(packetBytes) ETV
attr interpolationmode none
attr title "packet popped, vector(packetBytes)"
vector 116 phasetwo.R14.ppp[0].ppp.queue queueingTime:vector ETV
attr interpolationmode none
attr source queueingTime(packetPopped)
attr title "queueing times, vector"
attr unit s
vector 117 phasetwo.R14.ppp[0].ppp txPk:vector(packetBytes) ETV
attr interpolationmode none
attr source packetSentToLower
attr title "packets transmitted, vector(packetBytes)"
vector 118 phasetwo.R5.ppp[0].ppp rcvdPkFromHl:vector(packetBytes) ETV
attr interpolationmode none
attr source packetReceivedFromUpper
attr title "packets received from higher layer, vector(packetBytes)"
vector 119 phasetwo.R5.ppp[0].ppp.queue packetPushed:vector(packetBytes) ETV
attr interpolationmode none
attr title "packet pushed, vector(packetBytes)"
vector 120 phasetwo.R5.ppp[0].ppp.queue queueLength:vector ETV
attr interpolationmode sample-hold
attr source "count(packetPushed) - count(packetPopped) - count(packetRemoved) - count(packetDropped)"
attr title "queue length, vector"
vector 121 phasetwo.R5.ppp[0].ppp.queue packetPopped:vector(packetBytes) ETV
attr interpolationmode none
attr title "packet popped, vector(packetBytes)"
vector 122 phasetwo.R5.ppp[0].ppp.queue queueingTime:vector ETV
attr interpolationmode none
attr source queueingTime(packetPopped)
attr title "queueing times, vector"
attr unit s
vector 123 phasetwo.R5.ppp[0].ppp txPk:vector(packetBytes) ETV
attr interpolationmode none
attr source packetSentToLower
attr title "packets transmitted, vector(packetBytes)"
vector 124 phasetwo.R3.ppp[2].ppp rcvdPkFromHl:vector(packetBytes) ETV
attr interpolationmode none
attr source packetReceivedFromUpper
attr title "packets received from higher layer, vector(packetBytes)"
vector 125 phasetwo.R3.ppp[2].ppp.queue packetPushed:vector(packetBytes) ETV
attr interpolationmode none
attr title "packet pushed, vector(packetBytes)"
vector 126 phasetwo.R3.ppp[2].ppp.queue queueLength:vector ETV
attr interpolationmode sample-hold
attr source "count(packetPushed) - count(packetPopped) - count(packetRemoved) - count(packetDropped)"
attr title "queue length, vector"
vector 127 phasetwo.R3.ppp[2].ppp.queue packetPopped:vector(packetBytes) ETV
attr interpolationmode none
attr title "packet popped, vector(packetBytes)"
vector 128 phasetwo.R3.ppp[2].ppp.queue queueingTime:vector ETV
attr interpolationmode none
attr source queueingTime(packetPopped)
attr title "queueing times, vector"
attr unit s
vector 129 phasetwo.R3.ppp[2].ppp txPk:vector(packetBytes) ETV
attr interpolationmode none
attr source packetSentToLower
attr title "packets transmitted, vector(packetBytes)"
vector 130 phasetwo.R5.ppp[0].ppp rxPkOk:vector(packetBytes) ETV
attr interpolationmode none
attr source rxPkOk
attr title "packets received OK, vector(packetBytes)"
vector 131 phasetwo.R5.ppp[0].ppp passedUpPk:vector(packetBytes) ETV
attr interpolationmode none
attr source packetSentToUpper
attr title "packets passed to higher layer, vector(packetBytes)"
vector 132 phasetwo.R11.ppp[0].ppp rcvdPkFromHl:vector(packetBytes) ETV
attr interpolationmode none
attr source packetReceivedFromUpper
attr title "packets received from higher layer, vector(packetBytes)"
vector 133 phasetwo.R11.ppp[0].ppp.queue packetPushed:vector(packetBytes) ETV
attr interpolationmode none
attr title "packet pushed, vector(packetBytes)"
vector 134 phasetwo.R11.ppp[0].ppp.queue queueLength:vector ETV
attr interpolationmode sample-hold
attr source "count(packetPushed) - count(packetPopped) - count(packetRemoved) - count(packetDropped)"
attr title "queue length, vector"
vector 135 phasetwo.R11.ppp[0].ppp.queue packetPopped:vector(packetBytes) ETV
attr interpolationmode none
attr title "packet popped, vector(packetBytes)"
vector 136 phasetwo.R11.ppp[0].ppp.queue queueingTime:vector ETV
attr interpolationmode none
attr source queueingTime(packetPopped)
attr title "queueing times, vector"
attr unit s
vector 137 phasetwo.R11.ppp[0].ppp txPk:vector(packetBytes) ETV
attr interpolationmode none
attr source packetSentToLower
attr title "packets transmitted, vector(packetBytes)"
vector 138 phasetwo.R2.ppp[0].ppp rcvdPkFromHl:vector(packetBytes) ETV
attr interpolationmode none
attr source packetReceivedFromUpper
attr title "packets received from higher layer, vector(packetBytes)"
vector 139 phasetwo.R2.ppp[0].ppp.queue packetPushed:vector(packetBytes) ETV
attr interpolationmode none
attr title "packet pushed, vector(packetBytes)"
vector 140 phasetwo.R2.ppp[0].ppp.queue queueLength:vector ETV
attr interpolationmode sample-hold
attr source "count(packetPushed) - count(packetPopped) - count(packetRemoved) - count(packetDropped)"
attr title "queue length, vector"
vector 141 phasetwo.R2.ppp[0].ppp.queue packetPopped:vector(packetBytes) ETV
attr interpolationmode none
attr title "packet popped, vector(packetBytes)"
vector 142 phasetwo.R2.ppp[0].ppp.queue queueingTime:vector ETV
attr interpolationmode none
attr source queueingTime(packetPopped)
attr title "queueing times, vector"
attr unit s
vector 143 phasetwo.R2.ppp[0].ppp txPk:vector(packetBytes) ETV
attr interpolationmode none
attr source packetSentToLower
attr title "packets transmitted, vector(packetBytes)"
vector 144 phasetwo.R10.ppp[0].ppp rcvdPkFromHl:vector(packetBytes) ETV
attr interpolationmode none
attr source packetReceivedFromUpper
attr title "packets received from higher layer, vector(packetBytes)"
vector 145 phasetwo.R10.ppp[0].ppp.queue packetPushed:vector(packetBytes) ETV
attr interpolationmode none
attr title "packet pushed, vector(packetBytes)"
vector 146 phasetwo.R10.ppp[0].ppp.queue queueLength:vector ETV
attr interpolationmode sample-hold
attr source "count(packetPushed) - count(packetPopped) - count(packetRemoved) - count(packetDropped)"
attr title "queue length, vector"
vector 147 phasetwo.R10.ppp[0].ppp.queue packetPopped:vector(packetBytes) ETV
attr interpolationmode none
attr title "packet popped, vector(packetBytes)"
vector 148 phasetwo.R10.ppp[0].ppp.queue queueingTime:vector ETV
attr interpolationmode none
attr source queueingTime(packetPopped)
attr title "queueing times, vector"
attr unit s
vector 149 phasetwo.R10.ppp[0].ppp txPk:vector(packetBytes) ETV
attr interpolationmode none
attr source packetSentToLower
attr title "packets transmitted, vector(packetBytes)"
vector 150 phasetwo.R3.ppp[1].ppp rcvdPkFromHl:vector(packetBytes) ETV
attr interpolationmode none
attr source packetReceivedFromUpper
attr title "packets received from higher layer, vector(packetBytes)"
vector 151 phasetwo.R3.ppp[1].ppp.queue packetPushed:vector(packetBytes) ETV
attr interpolationmode none
attr title "packet pushed, vector(packetBytes)"
vector 152 phasetwo.R3.ppp[1].ppp.queue queueLength:vector ETV
attr interpolationmode sample-hold
attr source "count(packetPushed) - count(packetPopped) - count(packetRemoved) - count(packetDropped)"
attr title "queue length, vector"
vector 153 phasetwo.R3.ppp[1].ppp.queue packetPopped:vector(packetBytes) ETV
attr interpolationmode none
attr title "packet popped, vector(packetBytes)"
vector 154 phasetwo.R3.ppp[1].ppp.queue queueingTime:vector ETV
attr interpolationmode none
attr source queueingTime(packetPopped)
attr title "queueing times, vector"
attr unit s
vector 155 phasetwo.R3.ppp[1].ppp txPk:vector(packetBytes) ETV
attr interpolationmode none
attr source packetSentToLower
attr title "packets transmitted, vector(packetBytes)"
vector 156 phasetwo.R2.ppp[2].ppp rcvdPkFromHl:vector(packetBytes) ETV
attr interpolationmode none
attr source packetReceivedFromUpper
attr title "packets received from higher layer, vector(packetBytes)"
vector 157 phasetwo.R2.ppp[2].ppp.queue packetPushed:vector(packetBytes) ETV
attr interpolationmode none
attr title "packet pushed, vector(packetBytes)"
vector 158 phasetwo.R2.ppp[2].ppp.queue queueLength:vector ETV
attr interpolationmode sample-hold
attr source "count(packetPushed) - count(packetPopped) - count(packetRemoved) - count(packetDropped)"
attr title "queue length, vector"
vector 159 phasetwo.R2.ppp[2].ppp.queue packetPopped:vector(packetBytes) ETV
attr interpolationmode none
attr title "packet popped, vector(packetBytes)"
vector 160 phasetwo.R2.ppp[2].ppp.queue queueingTime:vector ETV
attr interpolationmode none
attr source queueingTime(packetPopped)
attr title "queueing times, vector"
attr unit s
vector 161 phasetwo.R2.ppp[2].ppp txPk:vector(packetBytes) ETV
attr interpolationmode none
attr source packetSentToLower
attr title "packets transmitted, vector(packetBytes)"
vector 162 phasetwo.R8.ppp[0].ppp rcvdPkFromHl:vector(packetBytes) ETV
attr interpolationmode none
attr source packetReceivedFromUpper
attr title "packets received from higher layer, vector(packetBytes)"
vector 163 phasetwo.R8.ppp[0].ppp.queue packetPushed:vector(packetBytes) ETV
attr interpolationmode none
attr title "packet pushed, vector(packetBytes)"
vector 164 phasetwo.R8.ppp[0].ppp.queue queueLength:vector ETV
attr interpolationmode sample-hold
attr source "count(packetPushed) - count(packetPopped) - count(packetRemoved) - count(packetDropped)"
attr title "queue length, vector"
vector 165 phasetwo.R8.ppp[0].ppp.queue packetPopped:vector(packetBytes) ETV
attr interpolationmode none
attr title "packet popped, vector(packetBytes)"
vector 166 phasetwo.R8.ppp[0].ppp.queue queueingTime:vector ETV
attr interpolationmode none
attr source queueingTime(packetPopped)
attr title "queueing times, vector"
attr unit s
vector 167 phasetwo.R8.ppp[0].ppp txPk:vector(packetBytes) ETV
attr interpolationmode none
attr source packetSentToLower
attr title "packets transmitted, vector(packetBytes)"
vector 168 phasetwo.R5.ppp[2].ppp rcvdPkFromHl:vector(packetBytes) ETV
attr interpolationmode none
attr source packetReceivedFromUpper
attr title "packets received from higher layer, vector(packetBytes)"
vector 169 phasetwo.R5.ppp[2].ppp.queue packetPushed:vector(packetBytes) ETV
attr interpolationmode none
attr title "packet pushed, vector(packetBytes)"
vector 170 phasetwo.R5.ppp[2].ppp.queue queueLength:vector ETV
attr interpolationmode sample-hold
attr source "count(packetPushed) - count(packetPopped) - count(packetRemoved) - count(packetDropped)"
attr title "queue length, vector"
vector 171 phasetwo.R5.ppp[2].ppp.queue packetPopped:vector(packetBytes) ETV
attr interpolationmode none
attr title "packet popped, vector(packetBytes)"
vector 172 phasetwo.R5.ppp[2].ppp.queue queueingTime:vector ETV
attr interpolationmode none
attr source queueingTime(packetPopped)
attr title "queueing times, vector"
attr unit s
vector 173 phasetwo.R5.ppp[2].ppp txPk:vector(packetBytes) ETV
attr interpolationmode none
attr source packetSentToLower
attr title "packets transmitted, vector(packetBytes)"
vector 174 phasetwo.R14.eth[0].encap encapPk:vector(packetBytes) ETV
attr interpolationmode none
attr source encapPk
attr title "packets encapsulated, vector(packetBytes)"
vector 175 phasetwo.R14.eth[0].mac packetReceivedFromUpper:vector(packetBytes) ETV
attr interpolationmode none
attr source packetReceivedFromUpper
attr title "packet bytes from higher layer, vector(packetBytes)"
vector 176 phasetwo.R14.eth[0].mac.queue packetPushed:vector(packetBytes) ETV
attr interpolationmode none
attr source localSignal(packetPushed)
attr title "packets pushed, vector(packetBytes)"
vector 177 phasetwo.R14.eth[0].mac.queue queueLength:vector ETV
attr interpolationmode sample-hold
attr source "count(localSignal(packetPushed)) - count(localSignal(packetPopped)) - count(localSignal(packetRemoved)) - count(packetDropped)"
attr title "queue length, vector"
vector 178 phasetwo.R14.eth[0].mac.queue.classifier packetPushed:vector(packetBytes) ETV
attr interpolationmode none
attr title "packets pushed, vector(packetBytes)"
vector 179 phasetwo.R14.eth[0].mac.queue.dataQueue packetPushed:vector(packetBytes) ETV
attr interpolationmode none
attr title "packet pushed, vector(packetBytes)"
vector 180 phasetwo.R14.eth[0].mac.queue.dataQueue queueLength:vector ETV
attr interpolationmode sample-hold
attr source "count(packetPushed) - count(packetPopped) - count(packetRemoved) - count(packetDropped)"
attr title "queue length, vector"
vector 181 phasetwo.R14.eth[0].mac.queue.dataQueue packetPopped:vector(packetBytes) ETV
attr interpolationmode none
attr title "packet popped, vector(packetBytes)"
vector 182 phasetwo.R14.eth[0].mac.queue.dataQueue queueingTime:vector ETV
attr interpolationmode none
attr source queueingTime(packetPopped)
attr title "queueing times, vector"
attr unit s
vector 183 phasetwo.R14.eth[0].mac.queue queueingTime:vector ETV
attr interpolationmode none
attr source queueingTime(packetPopped)
attr title "queueing times, vector"
attr unit s
vector 184 phasetwo.R14.eth[0].mac.queue.scheduler packetPopped:vector(packetBytes) ETV
attr interpolationmode none
attr title "packets popped, vector(packetBytes)"
vector 185 phasetwo.R14.eth[0].mac.queue packetPopped:vector(packetBytes) ETV
attr interpolationmode none
attr source localSignal(packetPopped)
attr title "packets popped, vector(packetBytes)"
vector 186 phasetwo.R14.eth[0].mac txPk:vector(packetBytes) ETV
attr interpolationmode none
attr source packetSentToLower
attr title "packets transmitted, vector(packetBytes)"
vector 187 phasetwo.H2.eth[0].mac rxPkOk:vector(packetBytes) ETV
attr interpolationmode none
attr source rxPkOk
attr title "packets received OK, vector(packetBytes)"
vector 188 phasetwo.H2.eth[0].mac passedUpPk:vector(packetBytes) ETV
attr interpolationmode none
attr source packetSentToUpper
attr title "packets passed to higher layer, vector(packetBytes)"
vector 189 phasetwo.H2.eth[0].encap decapPk:vector(packetBytes) ETV
attr interpolationmode none
attr source decapPk
attr title "packets decapsulated, vector(packetBytes)"
vector 190 phasetwo.R8.ppp[1].ppp rcvdPkFromHl:vector(packetBytes) ETV
attr interpolationmode none
attr source packetReceivedFromUpper
attr title "packets received from higher layer, vector(packetBytes)"
vector 191 phasetwo.R8.ppp[1].ppp.queue packetPushed:vector(packetBytes) ETV
attr interpolationmode none
attr title "packet pushed, vector(packetBytes)"
vector 192 phasetwo.R8.ppp[1].ppp.queue queueLength:vector ETV
attr interpolationmode sample-hold
attr source "count(packetPushed) - count(packetPopped) - count(packetRemoved) - count(packetDropped)"
attr title "queue length, vector"
vector 193 phasetwo.R8.ppp[1].ppp.queue packetPopped:vector(packetBytes) ETV
attr interpolationmode none
attr title "packet popped, vector(packetBytes)"
vector 194 phasetwo.R8.ppp[1].ppp.queue queueingTime:vector ETV
attr interpolationmode none
attr source queueingTime(packetPopped)
attr title "queueing times, vector"
attr unit s
vector 195 phasetwo.R8.ppp[1].ppp txPk:vector(packetBytes) ETV
attr interpolationmode none
attr source packetSentToLower
attr title "packets transmitted, vector(packetBytes)"
vector 196 phasetwo.R11.ppp[1].ppp rcvdPkFromHl:vector(packetBytes) ETV
attr interpolationmode none
attr source packetReceivedFromUpper
attr title "packets received from higher layer, vector(packetBytes)"
vector 197 phasetwo.R11.ppp[1].ppp.queue packetPushed:vector(packetBytes) ETV
attr interpolationmode none
attr title "packet pushed, vector(packetBytes)"
vector 198 phasetwo.R11.ppp[1].ppp.queue queueLength:vector ETV
attr interpolationmode sample-hold
attr source "count(packetPushed) - count(packetPopped) - count(packetRemoved) - count(packetDropped)"
attr title "queue length, vector"
vector 199 phasetwo.R11.ppp[1].ppp.queue packetPopped:vector(packetBytes) ETV
attr interpolationmode none
attr title "packet popped, vector(packetBytes)"
vector 200 phasetwo.R11.ppp[1].ppp.queue queueingTime:vector ETV
attr interpolationmode none
attr source queueingTime(packetPopped)
attr title "queueing times, vector"
attr unit s
vector 201 phasetwo.R11.ppp[1].ppp txPk:vector(packetBytes) ETV
attr interpolationmode none
attr source packetSentToLower
attr title "packets transmitted, vector(packetBytes)"
vector 202 phasetwo.R12.ppp[2].ppp rcvdPkFromHl:vector(packetBytes) ETV
attr interpolationmode none
attr source packetReceivedFromUpper
attr title "packets received from higher layer, vector(packetBytes)"
vector 203 phasetwo.R12.ppp[2].ppp.queue packetPushed:vector(packetBytes) ETV
attr interpolationmode none
attr title "packet pushed, vector(packetBytes)"
vector 204 phasetwo.R12.ppp[2].ppp.queue queueLength:vector ETV
attr interpolationmode sample-hold
attr source "count(packetPushed) - count(packetPopped) - count(packetRemoved) - count(packetDropped)"
attr title "queue length, vector"
vector 205 phasetwo.R12.ppp[2].ppp.queue packetPopped:vector(packetBytes) ETV
attr interpolationmode none
attr title "packet popped, vector(packetBytes)"
vector 206 phasetwo.R12.ppp[2].ppp.queue queueingTime:vector ETV
attr interpolationmode none
attr source queueingTime(packetPopped)
attr title "queueing times, vector"
attr unit s
vector 207 phasetwo.R12.ppp[2].ppp txPk:vector(packetBytes) ETV
attr interpolationmode none
attr source packetSentToLower
attr title "packets transmitted, vector(packetBytes)"
vector 208 phasetwo.R10.ppp[1].ppp rcvdPkFromHl:vector(packetBytes) ETV
attr interpolationmode none
attr source packetReceivedFromUpper
attr title "packets received from higher layer, vector(packetBytes)"
vector 209 phasetwo.R10.ppp[1].ppp.queue packetPushed:vector(packetBytes) ETV
attr interpolationmode none
attr title "packet pushed, vector(packetBytes)"
vector 210 phasetwo.R10.ppp[1].ppp.queue queueLength:vector ETV
attr interpolationmode sample-hold
attr source "count(packetPushed) - count(packetPopped) - count(packetRemoved) - count(packetDropped)"
attr title "queue length, vector"
vector 211 phasetwo.R10.ppp[1].ppp.queue packetPopped:vector(packetBytes) ETV
attr interpolationmode none
attr title "packet popped, vector(packetBytes)"
vector 212 phasetwo.R10.ppp[1].ppp.queue queueingTime:vector ETV
attr interpolationmode none
attr source queueingTime(packetPopped)
attr title "queueing times, vector"
attr unit s
vector 213 phasetwo.R10.ppp[1].ppp txPk:vector(packetBytes) ETV
attr interpolationmode none
attr source packetSentToLower
attr title "packets transmitted, vector(packetBytes)"
vector 214 phasetwo.R12.ppp[0].ppp rcvdPkFromHl:vector(packetBytes) ETV
attr interpolationmode none
attr source packetReceivedFromUpper
attr title "packets received from higher layer, vector(packetBytes)"
vector 215 phasetwo.R12.ppp[0].ppp.queue packetPushed:vector(packetBytes) ETV
attr interpolationmode none
attr title "packet pushed, vector(packetBytes)"
vector 216 phasetwo.R12.ppp[0].ppp.queue queueLength:vector ETV
attr interpolationmode sample-hold
attr source "count(packetPushed) - count(packetPopped) - count(packetRemoved) - count(packetDropped)"
attr title "queue length, vector"
vector 217 phasetwo.R12.ppp[0].ppp.queue packetPopped:vector(packetBytes) ETV
attr interpolationmode none
attr title "packet popped, vector(packetBytes)"
vector 218 phasetwo.R12.ppp[0].ppp.queue queueingTime:vector ETV
attr interpolationmode none
attr source queueingTime(packetPopped)
attr title "queueing times, vector"
attr unit s
vector 219 phasetwo.R12.ppp[0].ppp txPk:vector(packetBytes) ETV
attr interpolationmode none
attr source packetSentToLower
attr title "packets transmitted, vector(packetBytes)"
vector 220 phasetwo.R7.ppp[1].ppp rcvdPkFromHl:vector(packetBytes) ETV
attr interpolationmode none
attr source packetReceivedFromUpper
attr title "packets received from higher layer, vector(packetBytes)"
vector 221 phasetwo.R7.ppp[1].ppp.queue packetPushed:vector(packetBytes) ETV
attr interpolationmode none
attr title "packet pushed, vector(packetBytes)"
vector 222 phasetwo.R7.ppp[1].ppp.queue queueLength:vector ETV
attr interpolationmode sample-hold
attr source "count(packetPushed) - count(packetPopped) - count(packetRemoved) - count(packetDropped)"
attr title "queue length, vector"
vector 223 phasetwo.R7.ppp[1].ppp.queue packetPopped:vector(packetBytes) ETV
attr interpolationmode none
attr title "packet popped, vector(packetBytes)"
vector 224 phasetwo.R7.ppp[1].ppp.queue queueingTime:vector ETV
attr interpolationmode none
attr source queueingTime(packetPopped)
attr title "queueing times, vector"
attr unit s
vector 225 phasetwo.R7.ppp[1].ppp txPk:vector(packetBytes) ETV
attr interpolationmode none
attr source packetSentToLower
attr title "packets transmitted, vector(packetBytes)"
vector 226 phasetwo.R14.ppp[1].ppp rcvdPkFromHl:vector(packetBytes) ETV
attr interpolationmode none
attr source packetReceivedFromUpper
attr title "packets received from higher layer, vector(packetBytes)"
vector 227 phasetwo.R14.ppp[1].ppp.queue packetPushed:vector(packetBytes) ETV
attr interpolationmode none
attr title "packet pushed, vector(packetBytes)"
vector 228 phasetwo.R14.ppp[1].ppp.queue queueLength:vector ETV
attr interpolationmode sample-hold
attr source "count(packetPushed) - count(packetPopped) - count(packetRemoved) - count(packetDropped)"
attr title "queue length, vector"
vector 229 phasetwo.R14.ppp[1].ppp.queue packetPopped:vector(packetBytes) ETV
attr interpolationmode none
attr title "packet popped, vector(packetBytes)"
vector 230 phasetwo.R14.ppp[1].ppp.queue queueingTime:vector ETV
attr interpolationmode none
attr source queueingTime(packetPopped)
attr title "queueing times, vector"
attr unit s
vector 231 phasetwo.R14.ppp[1].ppp txPk:vector(packetBytes) ETV
attr interpolationmode none
attr source packetSentToLower
attr title "packets transmitted, vector(packetBytes)"
vector 232 phasetwo.R6.ppp[1].ppp rcvdPkFromHl:vector(packetBytes) ETV
attr interpolationmode none
attr source packetReceivedFromUpper
attr title "packets received from higher layer, vector(packetBytes)"
vector 233 phasetwo.R6.ppp[1].ppp.queue packetPushed:vector(packetBytes) ETV
attr interpolationmode none
attr title "packet pushed, vector(packetBytes)"
vector 234 phasetwo.R6.ppp[1].ppp.queue queueLength:vector ETV
attr interpolationmode sample-hold
attr source "count(packetPushed) - count(packetPopped) - count(packetRemoved) - count(packetDropped)"
attr title "queue length, vector"
vector 235 phasetwo.R6.ppp[1].ppp.queue packetPopped:vector(packetBytes) ETV
attr interpolationmode none
attr title "packet popped, vector(packetBytes)"
vector 236 phasetwo.R6.ppp[1].ppp.queue queueingTime:vector ETV
attr interpolationmode none
attr source queueingTime(packetPopped)
attr title "queueing times, vector"
attr unit s
vector 237 phasetwo.R6.ppp[1].ppp txPk:vector(packetBytes) ETV
attr interpolationmode none
attr source packetSentToLower
attr title "packets transmitted, vector(packetBytes)"
vector 238 phasetwo.R4.ppp[0].ppp rcvdPkFromHl:vector(packetBytes) ETV
attr interpolationmode none
attr source packetReceivedFromUpper
attr title "packets received from higher layer, vector(packetBytes)"
vector 239 phasetwo.R4.ppp[0].ppp.queue packetPushed:vector(packetBytes) ETV
attr interpolationmode none
attr title "packet pushed, vector(packetBytes)"
vector 240 phasetwo.R4.ppp[0].ppp.queue queueLength:vector ETV
attr interpolationmode sample-hold
attr source "count(packetPushed) - count(packetPopped) - count(packetRemoved) - count(packetDropped)"
attr title "queue length, vector"
vector 241 phasetwo.R4.ppp[0].ppp.queue packetPopped:vector(packetBytes) ETV
attr interpolationmode none
attr title "packet popped, vector(packetBytes)"
vector 242 phasetwo.R4.ppp[0].ppp.queue queueingTime:vector ETV
attr interpolationmode none
attr source queueingTime(packetPopped)
attr title "queueing times, vector"
attr unit s
vector 243 phasetwo.R4.ppp[0].ppp txPk:vector(packetBytes) ETV
attr interpolationmode none
attr source packetSentToLower
attr title "packets transmitted, vector(packetBytes)"
vector 244 phasetwo.R1.eth[0].encap encapPk:vector(packetBytes) ETV
attr interpolationmode none
attr source encapPk
attr title "packets encapsulated, vector(packetBytes)"
vector 245 phasetwo.R1.eth[0].mac packetReceivedFromUpper:vector(packetBytes) ETV
attr interpolationmode none
attr source packetReceivedFromUpper
attr title "packet bytes from higher layer, vector(packetBytes)"
vector 246 phasetwo.R1.eth[0].mac.queue packetPushed:vector(packetBytes) ETV
attr interpolationmode none
attr source localSignal(packetPushed)
attr title "packets pushed, vector(packetBytes)"
vector 247 phasetwo.R1.eth[0].mac.queue queueLength:vector ETV
attr interpolationmode sample-hold
attr source "count(localSignal(packetPushed)) - count(localSignal(packetPopped)) - count(localSignal(packetRemoved)) - count(packetDropped)"
attr title "queue length, vector"
vector 248 phasetwo.R1.eth[0].mac.queue.classifier packetPushed:vector(packetBytes) ETV
attr interpolationmode none
attr title "packets pushed, vector(packetBytes)"
vector 249 phasetwo.R1.eth[0].mac.queue.dataQueue packetPushed:vector(packetBytes) ETV
attr interpolationmode none
attr title "packet pushed, vector(packetBytes)"
vector 250 phasetwo.R1.eth[0].mac.queue.dataQueue queueLength:vector ETV
attr interpolationmode sample-hold
attr source "count(packetPushed) - count(packetPopped) - count(packetRemoved) - count(packetDropped)"
attr title "queue length, vector"
vector 251 phasetwo.R1.eth[0].mac.queue.dataQueue packetPopped:vector(packetBytes) ETV
attr interpolationmode none
attr title "packet popped, vector(packetBytes)"
vector 252 phasetwo.R1.eth[0].mac.queue.dataQueue queueingTime:vector ETV
attr interpolationmode none
attr source queueingTime(packetPopped)
attr title "queueing times, vector"
attr unit s
vector 253 phasetwo.R1.eth[0].mac.queue queueingTime:vector ETV
attr interpolationmode none
attr source queueingTime(packetPopped)
attr title "queueing times, vector"
attr unit s
vector 254 phasetwo.R1.eth[0].mac.queue.scheduler packetPopped:vector(packetBytes) ETV
attr interpolationmode none
attr title "packets popped, vector(packetBytes)"
vector 255 phasetwo.R1.eth[0].mac.queue packetPopped:vector(packetBytes) ETV
attr interpolationmode none
attr source localSignal(packetPopped)
attr title "packets popped, vector(packetBytes)"
vector 256 phasetwo.R1.eth[0].mac txPk:vector(packetBytes) ETV
attr interpolationmode none
attr source packetSentToLower
attr title "packets transmitted, vector(packetBytes)"
vector 257 phasetwo.H1.eth[0].mac rxPkOk:vector(packetBytes) ETV
attr interpolationmode none
attr source rxPkOk
attr title "packets received OK, vector(packetBytes)"
vector 258 phasetwo.H1.eth[0].mac passedUpPk:vector(packetBytes) ETV
attr interpolationmode none
attr source packetSentToUpper
attr title "packets passed to higher layer, vector(packetBytes)"
vector 259 phasetwo.H1.eth[0].encap decapPk:vector(packetBytes) ETV
attr interpolationmode none
attr source decapPk
attr title "packets decapsulated, vector(packetBytes)"
vector 260 phasetwo.R7.ppp[0].ppp rcvdPkFromHl:vector(packetBytes) ETV
attr interpolationmode none
attr source packetReceivedFromUpper
attr title "packets received from higher layer, vector(packetBytes)"
vector 261 phasetwo.R7.ppp[0].ppp.queue packetPushed:vector(packetBytes) ETV
attr interpolationmode none
attr title "packet pushed, vector(packetBytes)"
vector 262 phasetwo.R7.ppp[0].ppp.queue queueLength:vector ETV
attr interpolationmode sample-hold
attr source "count(packetPushed) - count(packetPopped) - count(packetRemoved) - count(packetDropped)"
attr title "queue length, vector"
vector 263 phasetwo.R7.ppp[0].ppp.queue packetPopped:vector(packetBytes) ETV
attr interpolationmode none
attr title "packet popped, vector(packetBytes)"
vector 264 phasetwo.R7.ppp[0].ppp.queue queueingTime:vector ETV
attr interpolationmode none
attr source queueingTime(packetPopped)
attr title "queueing times, vector"
attr unit s
vector 265 phasetwo.R7.ppp[0].ppp txPk:vector(packetBytes) ETV
attr interpolationmode none
attr source packetSentToLower
attr title "packets transmitted, vector(packetBytes)"
vector 266 phasetwo.R1.ppp[1].ppp rcvdPkFromHl:vector(packetBytes) ETV
attr interpolationmode none
attr source packetReceivedFromUpper
attr title "packets received from higher layer, vector(packetBytes)"
vector 267 phasetwo.R1.ppp[1].ppp.queue packetPushed:vector(packetBytes) ETV
attr interpolationmode none
attr title "packet pushed, vector(packetBytes)"
vector 268 phasetwo.R1.ppp[1].ppp.queue queueLength:vector ETV
attr interpolationmode sample-hold
attr source "count(packetPushed) - count(packetPopped) - count(packetRemoved) - count(packetDropped)"
attr title "queue length, vector"
vector 269 phasetwo.R1.ppp[1].ppp.queue packetPopped:vector(packetBytes) ETV
attr interpolationmode none
attr title "packet popped, vector(packetBytes)"
vector 270 phasetwo.R1.ppp[1].ppp.queue queueingTime:vector ETV
attr interpolationmode none
attr source queueingTime(packetPopped)
attr title "queueing times, vector"
attr unit s
vector 271 phasetwo.R1.ppp[1].ppp txPk:vector(packetBytes) ETV
attr interpolationmode none
attr source packetSentToLower
attr title "packets transmitted, vector(packetBytes)"
vector 272 phasetwo.R12.ppp[1].ppp rcvdPkFromHl:vector(packetBytes) ETV
attr interpolationmode none
attr source packetReceivedFromUpper
attr title "packets received from higher layer, vector(packetBytes)"
vector 273 phasetwo.R12.ppp[1].ppp.queue packetPushed:vector(packetBytes) ETV
attr interpolationmode none
attr title "packet pushed, vector(packetBytes)"
vector 274 phasetwo.R12.ppp[1].ppp.queue queueLength:vector ETV
attr interpolationmode sample-hold
attr source "count(packetPushed) - count(packetPopped) - count(packetRemoved) - count(packetDropped)"
attr title "queue length, vector"
vector 275 phasetwo.R12.ppp[1].ppp.queue packetPopped:vector(packetBytes) ETV
attr interpolationmode none
attr title "packet popped, vector(packetBytes)"
vector 276 phasetwo.R12.ppp[1].ppp.queue queueingTime:vector ETV
attr interpolationmode none
attr source queueingTime(packetPopped)
attr title "queueing times, vector"
attr unit s
vector 277 phasetwo.R12.ppp[1].ppp txPk:vector(packetBytes) ETV
attr interpolationmode none
attr source packetSentToLower
attr title "packets transmitted, vector(packetBytes)"
vector 278 phasetwo.R8.ppp[0].ppp rxPkOk:vector(packetBytes) ETV
attr interpolationmode none
attr source rxPkOk
attr title "packets received OK, vector(packetBytes)"
vector 279 phasetwo.R8.ppp[0].ppp passedUpPk:vector(packetBytes) ETV
attr interpolationmode none
attr source packetSentToUpper
attr title "packets passed to higher layer, vector(packetBytes)"
vector 280 phasetwo.R1.ppp[0].ppp rcvdPkFromHl:vector(packetBytes) ETV
attr interpolationmode none
attr source packetReceivedFromUpper
attr title "packets received from higher layer, vector(packetBytes)"
vector 281 phasetwo.R1.ppp[0].ppp.queue packetPushed:vector(packetBytes) ETV
attr interpolationmode none
attr title "packet pushed, vector(packetBytes)"
vector 282 phasetwo.R1.ppp[0].ppp.queue queueLength:vector ETV
attr interpolationmode sample-hold
attr source "count(packetPushed) - count(packetPopped) - count(packetRemoved) - count(packetDropped)"
attr title "queue length, vector"
vector 283 phasetwo.R1.ppp[0].ppp.queue packetPopped:vector(packetBytes) ETV
attr interpolationmode none
attr title "packet popped, vector(packetBytes)"
vector 284 phasetwo.R1.ppp[0].ppp.queue queueingTime:vector ETV
attr interpolationmode none
attr source queueingTime(packetPopped)
attr title "queueing times, vector"
attr unit s
vector 285 phasetwo.R1.ppp[0].ppp txPk:vector(packetBytes) ETV
attr interpolationmode none
attr source packetSentToLower
attr title "packets transmitted, vector(packetBytes)"
vector 286 phasetwo.R10.ppp[2].ppp rcvdPkFromHl:vector(packetBytes) ETV
attr interpolationmode none
attr source packetReceivedFromUpper
attr title "packets received from higher layer, vector(packetBytes)"
vector 287 phasetwo.R10.ppp[2].ppp.queue packetPushed:vector(packetBytes) ETV
attr interpolationmode none
attr title "packet pushed, vector(packetBytes)"
vector 288 phasetwo.R10.ppp[2].ppp.queue queueLength:vector ETV
attr interpolationmode sample-hold
attr source "count(packetPushed) - count(packetPopped) - count(packetRemoved) - count(packetDropped)"
attr title "queue length, vector"
vector 289 phasetwo.R10.ppp[2].ppp.queue packetPopped:vector(packetBytes) ETV
attr interpolationmode none
attr title "packet popped, vector(packetBytes)"
vector 290 phasetwo.R10.ppp[2].ppp.queue queueingTime:vector ETV
attr interpolationmode none
attr source queueingTime(packetPopped)
attr title "queueing times, vector"
attr unit s
vector 291 phasetwo.R10.ppp[2].ppp txPk:vector(packetBytes) ETV
attr interpolationmode none
attr source packetSentToLower
attr title "packets transmitted, vector(packetBytes)"
vector 292 phasetwo.R6.ppp[0].ppp rxPkOk:vector(packetBytes) ETV
attr interpolationmode none
attr source rxPkOk
attr title "packets received OK, vector(packetBytes)"
vector 293 phasetwo.R6.ppp[0].ppp passedUpPk:vector(packetBytes) ETV
attr interpolationmode none
attr source packetSentToUpper
attr title "packets passed to higher layer, vector(packetBytes)"
vector 294 phasetwo.R13.ppp[0].ppp rcvdPkFromHl:vector(packetBytes) ETV
attr interpolationmode none
attr source packetReceivedFromUpper
attr title "packets received from higher layer, vector(packetBytes)"
vector 295 phasetwo.R13.ppp[0].ppp.queue packetPushed:vector(packetBytes) ETV
attr interpolationmode none
attr title "packet pushed, vector(packetBytes)"
vector 296 phasetwo.R13.ppp[0].ppp.queue queueLength:vector ETV
attr interpolationmode sample-hold
attr source "count(packetPushed) - count(packetPopped) - count(packetRemoved) - count(packetDropped)"
attr title "queue length, vector"
vector 297 phasetwo.R13.ppp[0].ppp.queue packetPopped:vector(packetBytes) ETV
attr interpolationmode none
attr title "packet popped, vector(packetBytes)"
vector 298 phasetwo.R13.ppp[0].ppp.queue queueingTime:vector ETV
attr interpolationmode none
attr source queueingTime(packetPopped)
attr title "queueing times, vector"
attr unit s
vector 299 phasetwo.R13.ppp[0].ppp txPk:vector(packetBytes) ETV
attr interpolationmode none
attr source packetSentToLower
attr title "packets transmitted, vector(packetBytes)"
vector 300 phasetwo.R5.ppp[1].ppp rcvdPkFromHl:vector(packetBytes) ETV
attr interpolationmode none
attr source packetReceivedFromUpper
attr title "packets received from higher layer, vector(packetBytes)"
vector 301 phasetwo.R5.ppp[1].ppp.queue packetPushed:vector(packetBytes) ETV
attr interpolationmode none
attr title "packet pushed, vector(packetBytes)"
vector 302 phasetwo.R5.ppp[1].ppp.queue queueLength:vector ETV
attr interpolationmode sample-hold
attr source "count(packetPushed) - count(packetPopped) - count(packetRemoved) - count(packetDropped)"
attr title "queue length, vector"
vector 303 phasetwo.R5.ppp[1].ppp.queue packetPopped:vector(packetBytes) ETV
attr interpolationmode none
attr title "packet popped, vector(packetBytes)"
vector 304 phasetwo.R5.ppp[1].ppp.queue queueingTime:vector ETV
attr interpolationmode none
attr source queueingTime(packetPopped)
attr title "queueing times, vector"
attr unit s
vector 305 phasetwo.R5.ppp[1].ppp txPk:vector(packetBytes) ETV
attr interpolationmode none
attr source packetSentToLower
attr title "packets transmitted, vector(packetBytes)"
vector 306 phasetwo.R12.ppp[0].ppp rxPkOk:vector(packetBytes) ETV
attr interpolationmode none
attr source rxPkOk
attr title "packets received OK, vector(packetBytes)"
vector 307 phasetwo.R12.ppp[0].ppp passedUpPk:vector(packetBytes) ETV
attr interpolationmode none
attr source packetSentToUpper
attr title "packets passed to higher layer, vector(packetBytes)"
vector 308 phasetwo.R1.ppp[1].ppp rxPkOk:vector(packetBytes) ETV
attr interpolationmode none
attr source rxPkOk
attr title "packets received OK, vector(packetBytes)"
vector 309 phasetwo.R1.ppp[1].ppp passedUpPk:vector(packetBytes) ETV
attr interpolationmode none
attr source packetSentToUpper
attr title "packets passed to higher layer, vector(packetBytes)"
vector 310 phasetwo.R13.ppp[1].ppp rcvdPkFromHl:vector(packetBytes) ETV
attr interpolationmode none
attr source packetReceivedFromUpper
attr title "packets received from higher layer, vector(packetBytes)"
vector 311 phasetwo.R13.ppp[1].ppp.queue packetPushed:vector(packetBytes) ETV
attr interpolationmode none
attr title "packet pushed, vector(packetBytes)"
vector 312 phasetwo.R13.ppp[1].ppp.queue queueLength:vector ETV
attr interpolationmode sample-hold
attr source "count(packetPushed) - count(packetPopped) - count(packetRemoved) - count(packetDropped)"
attr title "queue length, vector"
vector 313 phasetwo.R13.ppp[1].ppp.queue packetPopped:vector(packetBytes) ETV
attr interpolationmode none
attr title "packet popped, vector(packetBytes)"
vector 314 phasetwo.R13.ppp[1].ppp.queue queueingTime:vector ETV
attr interpolationmode none
attr source queueingTime(packetPopped)
attr title "queueing times, vector"
attr unit s
vector 315 phasetwo.R13.ppp[1].ppp txPk:vector(packetBytes) ETV
attr interpolationmode none
attr source packetSentToLower
attr title "packets transmitted, vector(packetBytes)"
vector 316 phasetwo.R11.ppp[1].ppp rxPkOk:vector(packetBytes) ETV
attr interpolationmode none
attr source rxPkOk
attr title "packets received OK, vector(packetBytes)"
vector 317 phasetwo.R11.ppp[1].ppp passedUpPk:vector(packetBytes) ETV
attr interpolationmode none
attr source packetSentToUpper
attr title "packets passed to higher layer, vector(packetBytes)"
vector 318 phasetwo.R6.ppp[2].ppp rxPkOk:vector(packetBytes) ETV
attr interpolationmode none
attr source rxPkOk
attr title "packets received OK, vector(packetBytes)"
vector 319 phasetwo.R6.ppp[2].ppp passedUpPk:vector(packetBytes) ETV
attr interpolationmode none
attr source packetSentToUpper
attr title "packets passed to higher layer, vector(packetBytes)"
vector 320 phasetwo.R8.ppp[2].egressTC.mfClassifier pkClass:vector ETV
attr interpolationmode none
attr source pkClass
attr title "packet class, vector"
vector 321 phasetwo.R8.ppp[2].egressTC.beMarker packetMarked:vector(packetBytes) ETV
attr interpolationmode none
attr source packetMarked
attr title "packets marked, vector(packetBytes)"
vector 322 phasetwo.R8.ppp[2].ppp rcvdPkFromHl:vector(packetBytes) ETV
attr interpolationmode none
attr source packetReceivedFromUpper
attr title "packets received from higher layer, vector(packetBytes)"
vector 323 phasetwo.R8.ppp[2].ppp.queue packetPushed:vector(packetBytes) ETV
attr interpolationmode none
attr title "packet pushed, vector(packetBytes)"
vector 324 phasetwo.R8.ppp[2].ppp.queue queueLength:vector ETV
attr interpolationmode sample-hold
attr source "count(packetPushed) - count(packetPopped) - count(packetRemoved) - count(packetDropped)"
attr title "queue length, vector"
vector 325 phasetwo.R8.ppp[2].ppp.queue packetPopped:vector(packetBytes) ETV
attr interpolationmode none
attr title "packet popped, vector(packetBytes)"
vector 326 phasetwo.R8.ppp[2].ppp.queue queueingTime:vector ETV
attr interpolationmode none
attr source queueingTime(packetPopped)
attr title "queueing times, vector"
attr unit s
vector 327 phasetwo.R8.ppp[2].ppp txPk:vector(packetBytes) ETV
attr interpolationmode none
attr source packetSentToLower
attr title "packets transmitted, vector(packetBytes)"
vector 328 phasetwo.R10.ppp[0].ppp rxPkOk:vector(packetBytes) ETV
attr interpolationmode none
attr source rxPkOk
attr title "packets received OK, vector(packetBytes)"
vector 329 phasetwo.R10.ppp[0].ppp passedUpPk:vector(packetBytes) ETV
attr interpolationmode none
attr source packetSentToUpper
attr title "packets passed to higher layer, vector(packetBytes)"
vector 330 phasetwo.R9.ppp[1].ppp rcvdPkFromHl:vector(packetBytes) ETV
attr interpolationmode none
attr source packetReceivedFromUpper
attr title "packets received from higher layer, vector(packetBytes)"
vector 331 phasetwo.R9.ppp[1].ppp.queue packetPushed:vector(packetBytes) ETV
attr interpolationmode none
attr title "packet pushed, vector(packetBytes)"
vector 332 phasetwo.R9.ppp[1].ppp.queue queueLength:vector ETV
attr interpolationmode sample-hold
attr source "count(packetPushed) - count(packetPopped) - count(packetRemoved) - count(packetDropped)"
attr title "queue length, vector"
vector 333 phasetwo.R9.ppp[1].ppp.queue packetPopped:vector(packetBytes) ETV
attr interpolationmode none
attr title "packet popped, vector(packetBytes)"
vector 334 phasetwo.R9.ppp[1].ppp.queue queueingTime:vector ETV
attr interpolationmode none
attr source queueingTime(packetPopped)
attr title "queueing times, vector"
attr unit s
vector 335 phasetwo.R9.ppp[1].ppp txPk:vector(packetBytes) ETV
attr interpolationmode none
attr source packetSentToLower
attr title "packets transmitted, vector(packetBytes)"
vector 336 phasetwo.R3.ppp[0].ppp rcvdPkFromHl:vector(packetBytes) ETV
attr interpolationmode none
attr source packetReceivedFromUpper
attr title "packets received from higher layer, vector(packetBytes)"
vector 337 phasetwo.R3.ppp[0].ppp.queue packetPushed:vector(packetBytes) ETV
attr interpolationmode none
attr title "packet pushed, vector(packetBytes)"
vector 338 phasetwo.R3.ppp[0].ppp.queue queueLength:vector ETV
attr interpolationmode sample-hold
attr source "count(packetPushed) - count(packetPopped) - count(packetRemoved) - count(packetDropped)"
attr title "queue length, vector"
vector 339 phasetwo.R3.ppp[0].ppp.queue packetPopped:vector(packetBytes) ETV
attr interpolationmode none
attr title "packet popped, vector(packetBytes)"
vector 340 phasetwo.R3.ppp[0].ppp.queue queueingTime:vector ETV
attr interpolationmode none
attr source queueingTime(packetPopped)
attr title "queueing times, vector"
attr unit s
vector 341 phasetwo.R3.ppp[0].ppp txPk:vector(packetBytes) ETV
attr interpolationmode none
attr source packetSentToLower
attr title "packets transmitted, vector(packetBytes)"
vector 342 phasetwo.R11.ppp[0].ppp rxPkOk:vector(packetBytes) ETV
attr interpolationmode none
attr source rxPkOk
attr title "packets received OK, vector(packetBytes)"
vector 343 phasetwo.R11.ppp[0].ppp passedUpPk:vector(packetBytes) ETV
attr interpolationmode none
attr source packetSentToUpper
attr title "packets passed to higher layer, vector(packetBytes)"
vector 344 phasetwo.R9.ppp[1].ppp rxPkOk:vector(packetBytes) ETV
attr interpolationmode none
attr source rxPkOk
attr title "packets received OK, vector(packetBytes)"
vector 345 phasetwo.R9.ppp[1].ppp passedUpPk:vector(packetBytes) ETV
attr interpolationmode none
attr source packetSentToUpper
attr title "packets passed to higher layer, vector(packetBytes)"
vector 346 phasetwo.R5.ppp[2].ppp rxPkOk:vector(packetBytes) ETV
attr interpolationmode none
attr source rxPkOk
attr title "packets received OK, vector(packetBytes)"
vector 347 phasetwo.R5.ppp[2].ppp passedUpPk:vector(packetBytes) ETV
attr interpolationmode none
attr source packetSentToUpper
attr title "packets passed to higher layer, vector(packetBytes)"
vector 348 phasetwo.R7.ppp[0].ppp rxPkOk:vector(packetBytes) ETV
attr interpolationmode none
attr source rxPkOk
attr title "packets received OK, vector(packetBytes)"
vector 349 phasetwo.R7.ppp[0].ppp passedUpPk:vector(packetBytes) ETV
attr interpolationmode none
attr source packetSentToUpper
attr title "packets passed to higher layer, vector(packetBytes)"
vector 350 phasetwo.R3.ppp[1].ppp rxPkOk:vector(packetBytes) ETV
attr interpolationmode none
attr source rxPkOk
attr title "packets received OK, vector(packetBytes)"
vector 351 phasetwo.R3.ppp[1].ppp passedUpPk:vector(packetBytes) ETV
attr interpolationmode none
attr source packetSentToUpper
attr title "packets passed to higher layer, vector(packetBytes)"
vector 352 phasetwo.R8.ppp[2].ppp rxPkOk:vector(packetBytes) ETV
attr interpolationmode none
attr source rxPkOk
attr title "packets received OK, vector(packetBytes)"
vector 353 phasetwo.R8.ppp[2].ppp passedUpPk:vector(packetBytes) ETV
attr interpolationmode none
attr source packetSentToUpper
attr title "packets passed to higher layer, vector(packetBytes)"
vector 354 phasetwo.R12.ppp[2].ppp rxPkOk:vector(packetBytes) ETV
attr interpolationmode none
attr source rxPkOk
attr title "packets received OK, vector(packetBytes)"
vector 355 phasetwo.R12.ppp[2].ppp passedUpPk:vector(packetBytes) ETV
attr interpolationmode none
attr source packetSentToUpper
attr title "packets passed to higher layer, vector(packetBytes)"
vector 356 phasetwo.R4.ppp[0].ppp rxPkOk:vector(packetBytes) ETV
attr interpolationmode none
attr source rxPkOk
attr title "packets received OK, vector(packetBytes)"
vector 357 phasetwo.R4.ppp[0].ppp passedUpPk:vector(packetBytes) ETV
attr interpolationmode none
attr source packetSentToUpper
attr title "packets passed to higher layer, vector(packetBytes)"
vector 358 phasetwo.R6.ppp[1].ppp rxPkOk:vector(packetBytes) ETV
attr interpolationmode none
attr source rxPkOk
attr title "packets received OK, vector(packetBytes)"
vector 359 phasetwo.R6.ppp[1].ppp passedUpPk:vector(packetBytes) ETV
attr interpolationmode none
attr source packetSentToUpper
attr title "packets passed to higher layer, vector(packetBytes)"
vector 360 phasetwo.R2.ppp[0].ppp rxPkOk:vector(packetBytes) ETV
attr interpolationmode none
attr source rxPkOk
attr title "packets received OK, vector(packetBytes)"
vector 361 phasetwo.R2.ppp[0].ppp passedUpPk:vector(packetBytes) ETV
attr interpolationmode none
attr source packetSentToUpper
attr title "packets passed to higher layer, vector(packetBytes)"
vector 362 phasetwo.R3.ppp[0].ppp rxPkOk:vector(packetBytes) ETV
attr interpolationmode none
attr source rxPkOk
attr title "packets received OK, vector(packetBytes)"
vector 363 phasetwo.R3.ppp[0].ppp passedUpPk:vector(packetBytes) ETV
attr interpolationmode none
attr source packetSentToUpper
attr title "packets passed to higher layer, vector(packetBytes)"
vector 364 phasetwo.R2.ppp[1].ppp rxPkOk:vector(packetBytes) ETV
attr interpolationmode none
attr source rxPkOk
attr title "packets received OK, vector(packetBytes)"
vector 365 phasetwo.R2.ppp[1].ppp passedUpPk:vector(packetBytes) ETV
attr interpolationmode none
attr source packetSentToUpper
attr title "packets passed to higher layer, vector(packetBytes)"
vector 366 phasetwo.R5.ppp[1].ppp rxPkOk:vector(packetBytes) ETV
attr interpolationmode none
attr source rxPkOk
attr title "packets received OK, vector(packetBytes)"
vector 367 phasetwo.R5.ppp[1].ppp passedUpPk:vector(packetBytes) ETV
attr interpolationmode none
attr source packetSentToUpper
attr title "packets passed to higher layer, vector(packetBytes)"
vector 368 phasetwo.R4.ppp[1].ppp rxPkOk:vector(packetBytes) ETV
attr interpolationmode none
attr source rxPkOk
attr title "packets received OK, vector(packetBytes)"
vector 369 phasetwo.R4.ppp[1].ppp passedUpPk:vector(packetBytes) ETV
attr interpolationmode none
attr source packetSentToUpper
attr title "packets passed to higher layer, vector(packetBytes)"
vector 370 phasetwo.R7.ppp[1].ppp rxPkOk:vector(packetBytes) ETV
attr interpolationmode none
attr source rxPkOk
attr title "packets received OK, vector(packetBytes)"
vector 371 phasetwo.R7.ppp[1].ppp passedUpPk:vector(packetBytes) ETV
attr interpolationmode none
attr source packetSentToUpper
attr title "packets passed to higher layer, vector(packetBytes)"
vector 372 phasetwo.R14.ppp[0].ppp rxPkOk:vector(packetBytes) ETV
attr interpolationmode none
attr source rxPkOk
attr title "packets received OK, vector(packetBytes)"
vector 373 phasetwo.R14.ppp[0].ppp passedUpPk:vector(packetBytes) ETV
attr interpolationmode none
attr source packetSentToUpper
attr title "packets passed to higher layer, vector(packetBytes)"
vector 374 phasetwo.R12.ppp[1].ppp rxPkOk:vector(packetBytes) ETV
attr interpolationmode none
attr source rxPkOk
attr title "packets received OK, vector(packetBytes)"
vector 375 phasetwo.R12.ppp[1].ppp passedUpPk:vector(packetBytes) ETV
attr interpolationmode none
attr source packetSentToUpper
attr title "packets passed to higher layer, vector(packetBytes)"
vector 376 phasetwo.R1.ppp[0].ppp rxPkOk:vector(packetBytes) ETV
attr interpolationmode none
attr source rxPkOk
attr title "packets received OK, vector(packetBytes)"
vector 377 phasetwo.R1.ppp[0].ppp passedUpPk:vector(packetBytes) ETV
attr interpolationmode none
attr source packetSentToUpper
attr title "packets passed to higher layer, vector(packetBytes)"
vector 378 phasetwo.R8.ppp[1].ppp rxPkOk:vector(packetBytes) ETV
attr interpolationmode none
attr source rxPkOk
attr title "packets received OK, vector(packetBytes)"
vector 379 phasetwo.R8.ppp[1].ppp passedUpPk:vector(packetBytes) ETV
attr interpolationmode none
attr source packetSentToUpper
attr title "packets passed to higher layer, vector(packetBytes)"
vector 380 phasetwo.R13.ppp[0].ppp rxPkOk:vector(packetBytes) ETV
attr interpolationmode none
attr source rxPkOk
attr title "packets received OK, vector(packetBytes)"
vector 381 phasetwo.R13.ppp[0].ppp passedUpPk:vector(packetBytes) ETV
attr interpolationmode none
attr source packetSentToUpper
attr title "packets passed to higher layer, vector(packetBytes)"
vector 382 phasetwo.R3.ppp[2].ppp rxPkOk:vector(packetBytes) ETV
attr interpolationmode none
attr source rxPkOk
attr title "packets received OK, vector(packetBytes)"
vector 383 phasetwo.R3.ppp[2].ppp passedUpPk:vector(packetBytes) ETV
attr interpolationmode none
attr source packetSentToUpper
attr title "packets passed to higher layer, vector(packetBytes)"
vector 384 phasetwo.R10.ppp[1].ppp rxPkOk:vector(packetBytes) ETV
attr interpolationmode none
attr source rxPkOk
attr title "packets received OK, vector(packetBytes)"
vector 385 phasetwo.R10.ppp[1].ppp passedUpPk:vector(packetBytes) ETV
attr interpolationmode none
attr source packetSentToUpper
attr title "packets passed to higher layer, vector(packetBytes)"
vector 386 phasetwo.R13.ppp[1].ppp rxPkOk:vector(packetBytes) ETV
attr interpolationmode none
attr source rxPkOk
attr title "packets received OK, vector(packetBytes)"
vector 387 phasetwo.R13.ppp[1].ppp passedUpPk:vector(packetBytes) ETV
attr interpolationmode none
attr source packetSentToUpper
attr title "packets passed to higher layer, vector(packetBytes)"
vector 388 phasetwo.R14.ppp[1].ppp rxPkOk:vector(packetBytes) ETV
attr interpolationmode none
attr source rxPkOk
attr title "packets received OK, vector(packetBytes)"
vector 389 phasetwo.R14.ppp[1].ppp passedUpPk:vector(packetBytes) ETV
attr interpolationmode none
attr source packetSentToUpper
attr title "packets passed to higher layer, vector(packetBytes)"
vector 390 phasetwo.R2.ppp[2].ppp rxPkOk:vector(packetBytes) ETV
attr interpolationmode none
attr source rxPkOk
attr title "packets received OK, vector(packetBytes)"
vector 391 phasetwo.R2.ppp[2].ppp passedUpPk:vector(packetBytes) ETV
attr interpolationmode none
attr source packetSentToUpper
attr title "packets passed to higher layer, vector(packetBytes)"
vector 392 phasetwo.R10.ppp[2].ppp rxPkOk:vector(packetBytes) ETV
attr interpolationmode none
attr source rxPkOk
attr title "packets received OK, vector(packetBytes)"
vector 393 phasetwo.R10.ppp[2].ppp passedUpPk:vector(packetBytes) ETV
attr interpolationmode none
attr source packetSentToUpper
attr title "packets passed to higher layer, vector(packetBytes)"
vector 394 phasetwo.R9.ppp[0].ppp rxPkOk:vector(packetBytes) ETV
attr interpolationmode none
attr source rxPkOk
attr title "packets received OK, vector(packetBytes)"
vector 395 phasetwo.R9.ppp[0].ppp passedUpPk:vector(packetBytes) ETV
attr interpolationmode none
attr source packetSentToUpper
attr title "packets passed to higher layer, vector(packetBytes)"
vector 396 phasetwo.R9.ppp[0].ingressTC.mfClassifier pkClass:vector ETV
attr interpolationmode none
attr source pkClass
attr title "packet class, vector"
vector 397 phasetwo.R9.ppp[0].ingressTC.beMarker packetMarked:vector(packetBytes) ETV
attr interpolationmode none
attr source packetMarked
attr title "packets marked, vector(packetBytes)"
vector 398 phasetwo.R11.ppp[2].ppp rxPkOk:vector(packetBytes) ETV
attr interpolationmode none
attr source rxPkOk
attr title "packets received OK, vector(packetBytes)"
vector 399 phasetwo.R11.ppp[2].ppp passedUpPk:vector(packetBytes) ETV
attr interpolationmode none
attr source packetSentToUpper
attr title "packets passed to higher layer, vector(packetBytes)"
vector 400 phasetwo.H1.app[2] numActiveSessions:vector ETV
attr interpolationmode sample-hold
attr source sum(connect)
attr title "number of active sessions, vector"
vector 401 phasetwo.H1.tcp.conn-42 tcpRcvQueueBytes:vector ETV
attr interpolationmode sample-hold
vector 402 phasetwo.H1.tcp.conn-42 rcvAdv:vector ETV
attr interpolationmode sample-hold
vector 403 phasetwo.H1.tcp.conn-42 rcvWnd:vector ETV
attr interpolationmode sample-hold
vector 404 phasetwo.H1.tcp.conn-42 sndAck:vector ETV
attr interpolationmode sample-hold
vector 405 phasetwo.H1.ipv4.arp arpRequestSent:vector(packetBytes) ETV
attr source arpRequestSent
attr title "ARP request sent, vector(packetBytes)"
vector 406 phasetwo.H1.eth[0].encap encapPk:vector(packetBytes) ETV
attr interpolationmode none
attr source encapPk
attr title "packets encapsulated, vector(packetBytes)"
vector 407 phasetwo.H1.eth[0].mac packetReceivedFromUpper:vector(packetBytes) ETV
attr interpolationmode none
attr source packetReceivedFromUpper
attr title "packet bytes from higher layer, vector(packetBytes)"
vector 408 phasetwo.H1.eth[0].mac.queue packetPushed:vector(packetBytes) ETV
attr interpolationmode none
attr source localSignal(packetPushed)
attr title "packets pushed, vector(packetBytes)"
vector 409 phasetwo.H1.eth[0].mac.queue queueLength:vector ETV
attr interpolationmode sample-hold
attr source "count(localSignal(packetPushed)) - count(localSignal(packetPopped)) - count(localSignal(packetRemoved)) - count(packetDropped)"
attr title "queue length, vector"
vector 410 phasetwo.H1.eth[0].mac.queue.classifier packetPushed:vector(packetBytes) ETV
attr interpolationmode none
attr title "packets pushed, vector(packetBytes)"
vector 411 phasetwo.H1.eth[0].mac.queue.dataQueue packetPushed:vector(packetBytes) ETV
attr interpolationmode none
attr title "packet pushed, vector(packetBytes)"
vector 412 phasetwo.H1.eth[0].mac.queue.dataQueue queueLength:vector ETV
attr interpolationmode sample-hold
attr source "count(packetPushed) - count(packetPopped) - count(packetRemoved) - count(packetDropped)"
attr title "queue length, vector"
vector 413 phasetwo.H1.eth[0].mac.queue.dataQueue packetPopped:vector(packetBytes) ETV
attr interpolationmode none
attr title "packet popped, vector(packetBytes)"
vector 414 phasetwo.H1.eth[0].mac.queue.dataQueue queueingTime:vector ETV
attr interpolationmode none
attr source queueingTime(packetPopped)
attr title "queueing times, vector"
attr unit s
vector 415 phasetwo.H1.eth[0].mac.queue queueingTime:vector ETV
attr interpolationmode none
attr source queueingTime(packetPopped)
attr title "queueing times, vector"
attr unit s
vector 416 phasetwo.H1.eth[0].mac.queue.scheduler packetPopped:vector(packetBytes) ETV
attr interpolationmode none
attr title "packets popped, vector(packetBytes)"
vector 417 phasetwo.H1.eth[0].mac.queue packetPopped:vector(packetBytes) ETV
attr interpolationmode none
attr source localSignal(packetPopped)
attr title "packets popped, vector(packetBytes)"
vector 418 phasetwo.H1.eth[0].mac txPk:vector(packetBytes) ETV
attr interpolationmode none
attr source packetSentToLower
attr title "packets transmitted, vector(packetBytes)"
vector 419 phasetwo.R1.eth[0].mac rxPkOk:vector(packetBytes) ETV
attr interpolationmode none
attr source rxPkOk
attr title "packets received OK, vector(packetBytes)"
vector 420 phasetwo.R1.eth[0].mac passedUpPk:vector(packetBytes) ETV
attr interpolationmode none
attr source packetSentToUpper
attr title "packets passed to higher layer, vector(packetBytes)"
vector 421 phasetwo.R1.eth[0].encap decapPk:vector(packetBytes) ETV
attr interpolationmode none
attr source decapPk
attr title "packets decapsulated, vector(packetBytes)"
vector 422 phasetwo.R1.eth[0].ingressTC.classifier pkClass:vector ETV
attr interpolationmode none
attr source pkClass
attr title "packet class, vector"
vector 423 phasetwo.R1.ipv4.arp arpReplySent:vector(packetBytes) ETV
attr source arpReplySent
attr title "ARP replies sent, vector(packetBytes)"
vector 424 phasetwo.R1.eth[0].ingressTC.marker packetMarked:vector(packetBytes) ETV
attr interpolationmode none
attr source packetMarked
attr title "packets marked, vector(packetBytes)"
vector 425 phasetwo.R14.ipv4.arp arpRequestSent:vector(packetBytes) ETV
attr source arpRequestSent
attr title "ARP request sent, vector(packetBytes)"
vector 426 phasetwo.H2.ipv4.arp arpReplySent:vector(packetBytes) ETV
attr source arpReplySent
attr title "ARP replies sent, vector(packetBytes)"
vector 427 phasetwo.H2.eth[0].encap encapPk:vector(packetBytes) ETV
attr interpolationmode none
attr source encapPk
attr title "packets encapsulated, vector(packetBytes)"
vector 428 phasetwo.H2.eth[0].mac packetReceivedFromUpper:vector(packetBytes) ETV
attr interpolationmode none
attr source packetReceivedFromUpper
attr title "packet bytes from higher layer, vector(packetBytes)"
vector 429 phasetwo.H2.eth[0].mac.queue packetPushed:vector(packetBytes) ETV
attr interpolationmode none
[...]
248	71297026 363 879463 931593 1140.107198867093 1240.107198867093 11 82 82 902 73964
249	71297389 363 879463 931593 1140.107198867093 1240.107198867093 11 82 82 902 73964
250	71297752 704 879463 931593 1140.107198867093 1240.107198867093 22 0 1 11 11
251	71298456 363 879463 931593 1140.107198867093 1240.107198867093 11 82 82 902 73964
252	71298819 352 879463 931593 1140.107198867093 1240.107198867093 11 0 0 0 0
253	71299171 1056 879463 931593 1140.107198867093 1240.107198867093 33 0 0 0 0
254	71300227 363 879463 931593 1140.107198867093 1240.107198867093 11 82 82 902 73964
255	71300590 363 879463 931593 1140.107198867093 1240.107198867093 11 82 82 902 73964
256	71300953 363 879464 931594 1140.107206067093 1240.107206067093 11 82 82 902 73964
257	71301316 363 879465 931595 1140.107206117093 1240.107206117093 11 82 82 902 73964
258	71301679 363 879465 931595 1140.107206117093 1240.107206117093 11 82 82 902 73964
259	71302042 363 879466 931596 1140.107206117093 1240.107206117093 11 64 64 704 45056
260	71302405 403 879471 931601 1140.108173347561 1240.108173347561 13 64 84 896 62016
261	71302808 403 879471 931601 1140.108173347561 1240.108173347561 13 64 84 896 62016
262	71303211 780 879471 931601 1140.108173347561 1240.108173347561 26 0 1 13 13
263	71303991 403 879471 931601 1140.108173347561 1240.108173347561 13 64 84 896 62016
264	71304394 390 879471 931601 1140.108173347561 1240.108173347561 13 0 0 0 0
265	71304784 403 879471 931601 1140.108173347561 1240.108173347561 13 71 91 987 75197
266	71305187 17821 879474 932515 1140.10852570675 1245.670820361249 526 48 528 198716 91565072
267	71323008 17821 879474 932515 1140.10852570675 1245.670820361249 526 48 528 198716 91565072
268	71340829 35250 879474 932515 1140.10852570675 1245.670820361249 1052 0 101 86056 8184930
269	71376079 7881 879474 932515 1140.10852570675 1245.670820361249 233 48 528 89528 42764192
270	71383960 9041 879474 932515 1140.10852570675 1245.670820361249 233 0 10.501159421865 1485.5415849464 13025.308853006
271	71393001 7881 879474 932515 1140.10852570675 1245.670820361249 233 55 535 91159 44029001
272	71400882 564 879477 931607 1140.108559950379 1240.108559950379 17 64 132 1324 112400
273	71401446 564 879477 931607 1140.108559950379 1240.108559950379 17 64 132 1324 112400
274	71402010 1088 879477 931607 1140.108559950379 1240.108559950379 34 0 1 17 17
275	71403098 564 879477 931607 1140.108559950379 1240.108559950379 17 64 132 1324 112400
276	71403662 544 879477 931607 1140.108559950379 1240.108559950379 17 0 0 0 0
277	71404206 564 879477 931607 1140.108559950379 1240.108559950379 17 71 139 1443 131769
278	71404770 16103 878521 933106 1138.461081632304 1249.814081632304 474 71 535 222786 113694706
279	71420873 16103 878521 933106 1138.461081632304 1249.814081632304 474 64 528 219468 110598928
280	71436976 72283 878487 931611 1138.432888986389 1240.108847807824 2131 48 528 830226 380487716
281	71509259 72283 878487 931611 1138.432888986389 1240.108847807824 2131 48 528 830226 380487716
282	71581542 147195 878474 931611 1138.416557582081 1240.108847807824 4363 0 101 417869 41304097
283	71728737 23313 878476 931611 1138.431138986389 1240.108847807824 686 48 528 286568 136909888
284	71752050 29550 878476 931611 1138.431138986389 1240.108847807824 686 0 12.175319258622 6519.4160080765 68510.536031195
285	71781600 23313 878476 931611 1138.431138986389 1240.108847807824 686 55 535 291370 140955454
286	71804913 465 879484 931614 1140.109555914097 1240.109555914097 14 68 132 1132 100112
287	71805378 465 879484 931614 1140.109555914097 1240.109555914097 14 68 132 1132 100112
288	71805843 896 879484 931614 1140.109555914097 1240.109555914097 28 0 1 14 14
289	71806739 465 879484 931614 1140.109555914097 1240.109555914097 14 68 132 1132 100112
290	71807204 448 879484 931614 1140.109555914097 1240.109555914097 14 0 0 0 0
291	71807652 465 879484 931614 1140.109555914097 1240.109555914097 14 75 139 1230 116646
292	71808117 16037 878593 933122 1138.592831632304 1249.945831632304 472 75 535 222644 113684624
293	71824154 16037 878593 933122 1138.592831632304 1249.945831632304 472 68 528 219340 110590736
294	71840191 564 879490 931620 1140.111032276554 1240.111032276554 17 64 132 1324 112400
295	71840755 564 879490 931620 1140.111032276554 1240.111032276554 17 64 132 1324 112400
296	71841319 1088 879490 931620 1140.111032276554 1240.111032276554 34 0 1 17 17
297	71842407 564 879490 931620 1140.111032276554 1240.111032276554 17 64 132 1324 112400
298	71842971 544 879490 931620 1140.111032276554 1240.111032276554 17 0 0 0 0
299	71843515 564 879490 931620 1140.111032276554 1240.111032276554 17 71 139 1443 131769
300	71844079 597 879494 931625 1140.111736760164 1240.111736760164 18 48 132 1324 109328
301	71844676 597 879494 931625 1140.111736760164 1240.111736760164 18 48 132 1324 109328
302	71845273 1152 879494 931625 1140.111736760164 1240.111736760164 36 0 1 18 18
303	71846425 597 879494 931625 1140.111736760164 1240.111736760164 18 48 132 1324 109328
304	71847022 576 879494 931625 1140.111736760164 1240.111736760164 18 0 0 0 0
305	71847598 597 879494 931625 1140.111736760164 1240.111736760164 18 55 139 1450 128746
306	71848195 4103 879003 933098 1139.403331632304 1249.732081632304 121 75 535 45683 21251057
307	71852298 4103 879003 933098 1139.403331632304 1249.732081632304 121 68 528 44836 20617424
308	71856401 531 879508 931629 1140.113260047472 1240.113260047472 16 55 139 1340 122696
309	71856932 531 879508 931629 1140.113260047472 1240.113260047472 16 48 132 1228 104720
310	71857463 403 879514 931635 1140.113836309436 1240.113836309436 13 64 84 896 62016
311	71857866 403 879514 931635 1140.113836309436 1240.113836309436 13 64 84 896 62016
312	71858269 780 879514 931635 1140.113836309436 1240.113836309436 26 0 1 13 13
313	71859049 403 879514 931635 1140.113836309436 1240.113836309436 13 64 84 896 62016
314	71859452 390 879514 931635 1140.113836309436 1240.113836309436 13 0 0 0 0
315	71859842 403 879514 931635 1140.113836309436 1240.113836309436 13 71 91 987 75197
316	71860245 415 879518 931636 1140.115339763719 1240.115339763719 13 71 91 987 75197
317	71860660 415 879518 931636 1140.115339763719 1240.115339763719 13 64 84 896 62016
318	71861075 523 879523 931641 1140.118200692058 1240.118200692058 16 71 139 1304 112448
319	71861598 523 879523 931641 1140.118200692058 1240.118200692058 16 64 132 1192 94976
320	71862121 15675 878523 933108 1138.461081632304 1249.814081632304 475 -1 -1 -475 475
321	71877796 16136 878523 933108 1138.461081632304 1249.814081632304 475 48 528 219484 110597648
322	71893932 5698 878668 933079 1138.728581632304 1249.467331632304 168 48 528 66900 31935696
323	71899630 5698 878668 933079 1138.728581632304 1249.467331632304 168 48 528 66900 31935696
324	71905328 10752 878668 933079 1138.728581632304 1249.467331632304 336 0 1 168 168
325	71916080 5698 878668 933079 1138.728581632304 1249.467331632304 168 48 528 66900 31935696
326	71921778 5483 878668 933079 1138.728581632304 1249.467331632304 168 0 0.2295 1.0952100291 0.15657411941871
327	71927261 5698 878668 933079 1138.728581632304 1249.467331632304 168 55 535 68076 32880528
328	71932959 454 879536 931654 1140.11982942101 1240.11982942101 14 75 139 1230 116646
329	71933413 454 879536 931654 1140.11982942101 1240.11982942101 14 68 132 1132 100112
330	71933867 4092 878789 933088 1138.998081632304 1249.572831632304 121 68 528 44836 20617424
331	71937959 4092 878789 933088 1138.998081632304 1249.572831632304 121 68 528 44836 20617424
332	71942051 7723 878789 933088 1138.998081632304 1249.572831632304 242 0 1 121 121
333	71949774 4093 878789 933088 1138.998081632304 1249.572831632304 121 68 528 44836 20617424
334	71953867 3911 878789 933088 1138.998081632304 1249.572831632304 121 0 0.11225 0.756694616494 0.082521719213584
335	71957778 4093 878789 933088 1138.998081632304 1249.572831632304 121 75 535 45683 21251057
336	71961871 617 879535 931653 1140.119763288281 1240.119763288281 19 52 332 1628 212144
337	71962488 617 879535 931653 1140.119763288281 1240.119763288281 19 52 332 1628 212144
338	71963105 1203 879535 931653 1140.119763288281 1240.119763288281 38 0 1 19 19
339	71964308 630 879535 931653 1140.119763288281 1240.119763288281 19 52 332 1628 212144
340	71964938 633 879535 931653 1140.119763288281 1240.119763288281 19 0 0.08475 0.102888986389 0.0074977763104108
341	71965571 630 879535 931653 1140.119763288281 1240.119763288281 19 59 339 1761 235867
342	71966201 415 879540 931658 1140.123052620812 1240.123052620812 13 71 91 987 75197
343	71966616 415 879540 931658 1140.123052620812 1240.123052620812 13 64 84 896 62016
344	71967031 413 879555 931670 1140.127063445195 1240.127063445195 13 71 91 987 75197
345	71967444 413 879555 931670 1140.127063445195 1240.127063445195 13 64 84 896 62016
346	71967857 454 879560 931675 1140.12732770417 1240.12732770417 14 75 139 1230 116646
347	71968311 454 879560 931675 1140.12732770417 1240.12732770417 14 68 132 1132 100112
348	71968765 465 879547 931664 1140.126384331586 1240.126384331586 14 75 139 1230 116646
349	71969230 465 879547 931664 1140.126384331586 1240.126384331586 14 68 132 1132 100112
350	71969695 562 879550 931680 1140.126728422814 1240.128728422814 17 59 339 1455 193617
351	71970257 562 879550 931680 1140.126728422814 1240.128728422814 17 52 332 1336 174080
352	71970819 413 879567 931686 1140.129023351139 1240.129023351139 13 71 91 987 75197
353	71971232 413 879567 931686 1140.129023351139 1240.129023351139 13 64 84 896 62016
354	71971645 413 879573 931692 1140.129292504552 1240.129292504552 13 71 91 987 75197
355	71972058 413 879573 931692 1140.129292504552 1240.129292504552 13 64 84 896 62016
356	71972471 465 879576 931698 1140.129762027451 1240.129762027451 14 75 139 1230 116646
357	71972936 465 879576 931698 1140.129762027451 1240.129762027451 14 68 132 1132 100112
358	71973401 415 879564 931683 1140.128923347561 1240.128923347561 13 71 91 987 75197
359	71973816 415 879564 931683 1140.128923347561 1240.128923347561 13 64 84 896 62016
360	71974231 7881 879570 932522 1140.12927570675 1245.686570361249 233 55 535 91159 44029001
361	71982112 7881 879570 932522 1140.12927570675 1245.686570361249 233 48 528 89528 42764192
362	71989993 23347 878489 931695 1138.433138986389 1240.129597807824 687 55 535 291905 141241679
363	72013340 23347 878489 931695 1138.433138986389 1240.129597807824 687 48 528 287096 137188672
364	72036687 14001 878573 931703 1138.518138986389 1240.135846980613 412 59 535 194552 99165412
365	72050688 14001 878573 931703 1138.518138986389 1240.135846980613 412 52 528 191668 96461872
366	72064689 16529 878517 933102 1138.457081632304 1249.810081632304 487 55 535 223241 113686375
367	72081218 16529 878517 933102 1138.457081632304 1249.810081632304 487 48 528 219832 110584864
368	72097747 413 879586 931708 1140.137496321822 1240.137496321822 13 71 91 987 75197
369	72098160 413 879586 931708 1140.137496321822 1240.137496321822 13 64 84 896 62016
370	72098573 480 879589 931711 1140.138132778686 1240.138132778686 15 71 139 1177 96319
371	72099053 480 879589 931711 1140.138132778686 1240.138132778686 15 64 132 1072 80576
372	72099533 4137 878609 933110 1138.602831632304 1249.837581632304 122 75 535 46218 21537282
373	72103670 4137 878609 933110 1138.602831632304 1249.837581632304 122 68 528 45364 20896208
374	72107807 553 879603 931724 1140.14080181749 1240.14080181749 17 71 139 1443 131769
375	72108360 553 879603 931724 1140.14080181749 1240.14080181749 17 64 132 1324 112400
376	72108913 630 879599 931720 1140.140513288281 1240.140513288281 19 59 339 1761 235867
377	72109543 630 879599 931720 1140.140513288281 1240.140513288281 19 52 332 1628 212144
378	72110173 498 879609 931727 1140.141881343521 1240.141881343521 15 71 139 1301 121687
379	72110671 498 879609 931727 1140.141881343521 1240.141881343521 15 64 132 1196 104208
380	72111169 564 879612 931730 1140.142553060732 1240.142553060732 17 71 139 1443 131769
381	72111733 564 879612 931730 1140.142553060732 1240.142553060732 17 64 132 1324 112400
382	72112297 413 879617 931735 1140.146244704792 1240.146244704792 13 71 91 987 75197
383	72112710 413 879617 931735 1140.146244704792 1240.146244704792 13 64 84 896 62016
384	72113123 564 879621 931739 1140.148059950379 1240.148059950379 17 71 139 1443 131769
385	72113687 564 879621 931739 1140.148059950379 1240.148059950379 17 64 132 1324 112400
386	72114251 465 879625 931743 1140.149055914097 1240.149055914097 14 75 139 1230 116646
387	72114716 465 879625 931743 1140.149055914097 1240.149055914097 14 68 132 1132 100112
388	72115181 564 879629 931747 1140.150532276554 1240.150532276554 17 71 139 1443 131769
389	72115745 564 879629 931747 1140.150532276554 1240.150532276554 17 64 132 1324 112400
390	72116309 597 879632 931750 1140.151236760164 1240.151236760164 18 55 139 1450 128746
391	72116906 597 879632 931750 1140.151236760164 1240.151236760164 18 48 132 1324 109328
392	72117503 413 879648 931754 1140.153336309436 1240.153336309436 13 71 91 987 75197
393	72117916 413 879648 931754 1140.153336309436 1240.153336309436 13 64 84 896 62016
394	72118329 5698 878786 933085 1138.998081632304 1249.572831632304 168 55 535 68076 32880528
395	72124027 5698 878786 933085 1138.998081632304 1249.572831632304 168 48 528 66900 31935696
396	72129725 5544 878787 933086 1138.998081632304 1249.572831632304 168 -1 -1 -168 168
397	72135269 5698 878787 933086 1138.998081632304 1249.572831632304 168 48 528 66900 31935696
398	72140967 4093 878939 933092 1139.267581632304 1249.678331632304 121 75 535 45683 21251057
399	72145060 4093 878939 933092 1139.267581632304 1249.678331632304 121 68 528 44836 20617424
406	72149153 88204 878480 924133 1138.432844616389 1199.992844616389 2599 90 528 1024810 471655460
407	72237357 88205 878481 924134 1138.432844616389 1199.992844616389 2599 108 546 1071592 509390696
408	72325562 88205 878481 924134 1138.432844616389 1199.992844616389 2599 108 546 1071592 509390696
409	72413767 166029 878481 924134 1138.432844616389 1199.992844616389 5198 0 1 2599 2599
410	72579796 88205 878481 924134 1138.432844616389 1199.992844616389 2599 108 546 1071592 509390696
411	72668001 88205 878481 924134 1138.432844616389 1199.992844616389 2599 108 546 1071592 509390696
412	72756206 166029 878481 924134 1138.432844616389 1199.992844616389 5198 0 1 2599 2599
413	72922235 88220 878481 924134 1138.432844616389 1199.992844616389 2599 108 546 1071592 509390696
414	73010455 83202 878481 924134 1138.432844616389 1199.992844616389 2599 0 2.2002979e-05 0.000330044685 7.2619662731166e-09
415	73093657 249606 878481 924134 1138.432844616389 1199.992844616389 7797 0 2.2002979e-05 0.000990134055 2.178589881935e-08
416	73343263 88220 878481 924134 1138.432844616389 1199.992844616389 2599 108 546 1071592 509390696
417	73431483 88220 878481 924134 1138.432844616389 1199.992844616389 2599 108 546 1071592 509390696
418	73519703 88220 878482 924135 1138.432888936389 1199.992888936389 2599 108 546 1071592 509390696
419	73607923 88220 878483 924136 1138.432888986389 1199.992888986389 2599 108 546 1071592 509390696
420	73696143 88220 878483 924136 1138.432888986389 1199.992888986389 2599 108 546 1071592 509390696
421	73784363 88219 878484 924137 1138.432888986389 1199.992888986389 2599 90 528 1024810 471655460
422	73872582 83022 878485 924138 1138.432888986389 1199.992888986389 2599 0 2 1542 1544
424	73955604 88219 878485 924138 1138.432888986389 1199.992888986389 2599 90 528 1024810 471655460
425	74043823 33 926576 926576 1210.489331632304 1210.489331632304 1 28 28 28 784
426	74043856 33 926582 926582 1210.489337442304 1210.489337442304 1 28 28 28 784
427	74043889 33 926583 926583 1210.489337442304 1210.489337442304 1 28 28 28 784
428	74043922 33 926584 926584 1210.489337442304 1210.489337442304 1 46 46 46 2116
429	74043955 33 926584 926584 1210.489337442304 1210.489337442304 1 64 64 64 4096
430	74043988 64 926584 926584 1210.489337442304 1210.489337442304 2 0 1 1 1
431	74044052 33 926584 926584 1210.489337442304 1210.489337442304 1 64 64 64 4096
432	74044085 33 926584 926584 1210.489337442304 1210.489337442304 1 64 64 64 4096
433	74044118 64 926584 926584 1210.489337442304 1210.489337442304 2 0 1 1 1
434	74044182 33 926584 926584 1210.489337442304 1210.489337442304 1 64 64 64 4096
435	74044215 32 926584 926584 1210.489337442304 1210.489337442304 1 0 0 0 0
436	74044247 96 926584 926584 1210.489337442304 1210.489337442304 3 0 0 0 0
437	74044343 33 926584 926584 1210.489337442304 1210.489337442304 1 64 64 64 4096
438	74044376 33 926584 926584 1210.489337442304 1210.489337442304 1 64 64 64 4096
439	74044409 33 926586 926586 1210.489343202304 1210.489343202304 1 64 64 64 4096
440	74044442 33 926587 926587 1210.489343252304 1210.489343252304 1 64 64 64 4096
441	74044475 33 926587 926587 1210.489343252304 1210.489343252304 1 64 64 64 4096
442	74044508 33 926588 926588 1210.489343252304 1210.489343252304 1 46 46 46 2116
443	74044541 33 926589 926589 1210.489343252304 1210.489343252304 1 -1 -1 -1 1
461	74044574 35811 878492 924050 1138.436539452081 1199.82940713889 1058 172 172 181976 31299872
462	74080385 88171 878478 924131 1138.432844616389 1199.992844616389 2598 180 508 972760 431697760
463	74168556 52360 878477 924130 1138.432844616389 1199.992844616389 1540 500 500 770000 385000000
478	74220916 3672 878617 933118 1138.602876002304 1249.837599762304 108 180 508 42072 19070016
479	74224588 3780 878617 933118 1138.602876002304 1249.837599762304 108 1371 1478 153846 219258594
480	74228368 1088 879711 933119 1140.242143251375 1249.837599762304 32 172 172 5504 946688
481	74229456 1471 879711 933119 1140.242143251375 1249.837599762304 32 32.506014694615 59.001027284108 1578.9471226576 81180.796298101
482	74230927 2346 878618 933038 1138.602876002304 1249.246876002304 69 500 500 34500 17250000
483	74233273 23803 878618 933177 1137 1250 1131 0 40000 2800000 112000000000
484	74257076 3174 878618 933038 1138.602876002304 1249.246876002304 69 24.640031385915 61.771531385915 3629.7809690167 198995.48801515
485	74260250 2484 878618 933038 1138.602876002304 1249.246876002304 69 27122 29729 1966204 56068077286
486	74262734 9956 890110 896634 1154.682333574471 1163.002388986389 293 48 528 109188 48800880
492	74272690 52401 878502 924140 1138.436557582081 1199.992888986389 1545 64 528 586290 264053924
493	74325091 32 915986 915986 1188.102849062304 1188.102849062304 1 0 0 0 0
494	74325123 39 915986 915986 1188.102849062304 1188.102849062304 1 21734089 21734089 21734089 4.7237062465992e+14
495	74325162 35 915986 915986 1188.102849062304 1188.102849062304 1 7504 7504 7504 56310016
496	74325197 39 915986 915986 1188.102849062304 1188.102849062304 1 21726585 21726585 21726585 4.7204449576222e+14
497	74325236 7374 878869 929445 1139.096138986389 1227.182138986389 217 48 528 90700 43394000
498	74332610 13008 878491 926777 1138.433138986389 1211.330713398629 383 52 528 142324 64069104
499	74345618 238 885934 926623 1149.341099762304 1210.592849762304 7 172 172 1204 207088
501	74345856 1529 879185 933023 1139.800581632304 1249.201831632304 45 68 528 21988 11315984
502	74347385 1529 879185 933023 1139.800581632304 1249.201831632304 45 68 528 21988 11315984
511	74348914 38 915986 915986 1188.102849062304 1188.102849062304 1 4741588 4741588 4741588 22482656761744
513	74348952 33 915986 915986 1188.102849062304 1188.102849062304 1 10 10 10 100
514	74348985 35 915986 915986 1188.102849062304 1188.102849062304 1 1072 1072 1072 1149184
515	74349020 34 915986 915986 1188.102849062304 1188.102849062304 1 536 536 536 287296
518	74349054 10438 878523 933108 1138.461081632304 1249.814081632304 307 200 528 152584 78661952
519	74359492 10438 878523 933108 1138.461081632304 1249.814081632304 307 200 528 152584 78661952
520	74369930 248903 933177 933177 0.1 1250 12500 0 0 0 0

