version 2
run Exp2DropTailWithPolicingAndShaping-0-20250326-00:37:19-32788
attr configname Exp2DropTailWithPolicingAndShaping
attr datetime 20250326-00:37:19
attr experiment Exp2DropTailWithPolicingAndShaping
attr inifile omnetpp.ini
attr iterationvars ""
attr iterationvarsf ""
attr measurement ""
attr network phasetwo
attr processid 32788
attr repetition 0
attr replication #0
attr resultdir results
attr runnumber 0
attr seedset 0
param **.ppp[*].ppp.queue.typename "\"DropTailQueue\""
param **.eth[*].mac.queue.typename "\"EtherQosQueue\""
param **.eth[*].mac.queue.dataQueue.typename "\"DropTailQueue\""
param **.queue.packetCapacity 100
param **.H?.numApps 3
param **.H1.app[0].typename "\"UdpBasicBurst\""
param **.H1.app[0].destAddresses "\"H2\""
param **.H1.app[0].chooseDestAddrMode "\"once\""
param **.H1.app[0].destPort 1000
param **.H1.app[0].startTime uniform(1s,2s)
param **.H1.app[0].stopTime 1200s
param **.H1.app[0].messageLength 172B
param **.H1.app[0].burstDuration exponential(0.352s)
param **.H1.app[0].sleepDuration exponential(0.650s)
param **.H1.app[0].sendInterval 20ms
param **.H2.app[0].typename "\"UdpBasicBurst\""
param **.H2.app[0].localPort 1000
param **.H2.app[0].delayLimit 0ms
param **.H2.app[0].destAddresses "\"\""
param **.H2.app[0].chooseDestAddrMode "\"once\""
param **.H2.app[0].destPort 0
param **.H2.app[0].messageLength 0B
param **.H2.app[0].burstDuration 0s
param **.H2.app[0].sleepDuration 0s
param **.H2.app[0].sendInterval 0ms
param **.H1.app[1].typename "\"UdpBasicApp\""
param **.H1.app[1].destPort 2000
param **.H1.app[1].startTime uniform(1s,2s)
param **.H1.app[1].stopTime 1200s
param **.H1.app[1].sendInterval 40ms
param **.H1.app[1].messageLength 500B
param **.H1.app[1].destAddresses "\"H2\""
param **.H2.app[1].typename "\"UdpSink\""
param **.H2.app[1].localPort 2000
param **.H1.app[2].typename "\"TcpBasicClientApp\""
param **.H1.app[2].connectAddress "\"H2\""
param **.H1.app[2].connectPort 3000
param **.H1.app[2].numRequestsPerSession 1
param **.H1.app[2].requestLength 50B
param **.H1.app[2].replyLength 100B
param **.H1.app[2].thinkTime 40ms
param **.H1.app[2].idleInterval 10s
param **.H1.app[2].stopTime 1200s
param **.H2.app[2].typename "\"TcpGenericServerApp\""
param **.H2.app[2].localPort 3000
param **.edgeDatarate 32kbps
param **.coreDatarate 16kbps
param **.R1.eth[*].ingressTC.typename "\"TC1\""
param **.R14.eth[*].ingressTC.typename "\"TC1\""
param **.ingressTC.numClasses 3
param **.ingressTC.classifier.filters "xmldoc(\"filters.xml\", \"//experiment[@id='default']\")"
param **.ingressTC.marker.dscps "\"AF11 AF21 AF31 AF41 BE\""
param **.R8.ppp[2].egressTC.typename "\"TrafficConditioner\""
param **.R8.ppp[2].egressTC.efMeter.cir "\"80%\""
param **.R8.ppp[2].egressTC.efMeter.cbs 200KiB
param **.R8.ppp[2].egressTC.defaultMeter.cir "\"30%\""
param **.R8.ppp[2].egressTC.defaultMeter.cbs 200KiB
param **.R8.ppp[2].egressTC.defaultMeter.ebs 50KiB
param **.R9.ppp[0].ingressTC.typename "\"TrafficConditioner\""
param **.R9.ppp[0].ingressTC.efMeter.cir "\"70%\""
param **.R9.ppp[0].ingressTC.efMeter.cbs 100KiB
param **.R9.ppp[0].ingressTC.defaultMeter.cir "\"20%\""
param **.R9.ppp[0].ingressTC.defaultMeter.cbs 100KiB
param **.R9.ppp[0].ingressTC.defaultMeter.ebs 25KiB
param **.queue.typename "\"EtherQosQueue\""
param **.queue.dataQueue.typename "\"DropTailQueue\""
param **.queue.packetCapacity 100
param **.queue.dataQueue.packetCapacity 100
param **.R*.hasOspf true
param **.R*.ospf.ospfConfig "xmldoc(\"OSPFConfig.xml\")"

scalar phasetwo.H1.ethg$o[0].channel packetsDiscarded:count 0
attr interpolationmode none
attr source constant1(messageDiscarded)
scalar phasetwo.H1.ethg$o[0].channel utilization:last 0.0014353575724325
attr source timeavg(channelBusy)
scalar phasetwo.H1.ethg$o[0].channel packets:count 51813
attr interpolationmode none
attr source constant1(messageSent)
scalar phasetwo.H1.ethg$o[0].channel packetBytes:sum 21530236
attr interpolationmode none
attr source packetBytes(messageSent)
attr unit B
scalar phasetwo.H1.ethg$o[0].channel throughput:last 143535.76254454
attr source sumPerDuration(packetBits(messageSent))
attr unit bps
scalar phasetwo.H2.ethg$o[0].channel packetsDiscarded:count 0
attr interpolationmode none
attr source constant1(messageDiscarded)
scalar phasetwo.H2.ethg$o[0].channel utilization:last 1.5993531961863e-07
attr source timeavg(channelBusy)
scalar phasetwo.H2.ethg$o[0].channel packets:count 31
attr interpolationmode none
attr source constant1(messageSent)
scalar phasetwo.H2.ethg$o[0].channel packetBytes:sum 2420
attr interpolationmode none
attr source packetBytes(messageSent)
attr unit B
scalar phasetwo.H2.ethg$o[0].channel throughput:last 15.993532037966
attr source sumPerDuration(packetBits(messageSent))
attr unit bps
scalar phasetwo.R1.pppg$o[0].channel packetsDiscarded:count 0
attr interpolationmode none
attr source constant1(messageDiscarded)
scalar phasetwo.R1.pppg$o[0].channel utilization:last 0.90641741381041
attr source timeavg(channelBusy)
scalar phasetwo.R1.pppg$o[0].channel packets:count 10521
attr interpolationmode none
attr source constant1(messageSent)
scalar phasetwo.R1.pppg$o[0].channel packetBytes:sum 4496293
attr interpolationmode none
attr source packetBytes(messageSent)
attr unit B
scalar phasetwo.R1.pppg$o[0].channel throughput:last 29005.795792511
attr source sumPerDuration(packetBits(messageSent))
attr unit bps
scalar phasetwo.R1.pppg$o[1].channel packetsDiscarded:count 0
attr interpolationmode none
attr source constant1(messageDiscarded)
scalar phasetwo.R1.pppg$o[1].channel utilization:last 0.3822982248724
attr source timeavg(channelBusy)
scalar phasetwo.R1.pppg$o[1].channel packets:count 4770
attr interpolationmode none
attr source constant1(messageSent)
scalar phasetwo.R1.pppg$o[1].channel packetBytes:sum 1904892
attr interpolationmode none
attr source packetBytes(messageSent)
attr unit B
scalar phasetwo.R1.pppg$o[1].channel throughput:last 12233.678232569
attr source sumPerDuration(packetBits(messageSent))
attr unit bps
scalar phasetwo.R1.ethg$o[0].channel packetsDiscarded:count 0
attr interpolationmode none
attr source constant1(messageDiscarded)
scalar phasetwo.R1.ethg$o[0].channel utilization:last 8.7256972196116e-07
attr source timeavg(channelBusy)
scalar phasetwo.R1.ethg$o[0].channel packets:count 154
attr interpolationmode none
attr source constant1(messageSent)
scalar phasetwo.R1.ethg$o[0].channel packetBytes:sum 13526
attr interpolationmode none
attr source packetBytes(messageSent)
attr unit B
scalar phasetwo.R1.ethg$o[0].channel throughput:last 87.256972702726
attr source sumPerDuration(packetBits(messageSent))
attr unit bps
scalar phasetwo.R2.pppg$o[0].channel packetsDiscarded:count 0
attr interpolationmode none
attr source constant1(messageDiscarded)
scalar phasetwo.R2.pppg$o[0].channel utilization:last 0.0047608631501128
attr source timeavg(channelBusy)
scalar phasetwo.R2.pppg$o[0].channel packets:count 256
attr interpolationmode none
attr source constant1(messageSent)
scalar phasetwo.R2.pppg$o[0].channel packetBytes:sum 23616
attr interpolationmode none
attr source packetBytes(messageSent)
attr unit B
scalar phasetwo.R2.pppg$o[0].channel throughput:last 152.34992427522
attr source sumPerDuration(packetBits(messageSent))
attr unit bps
scalar phasetwo.R2.pppg$o[1].channel packetsDiscarded:count 0
attr interpolationmode none
attr source constant1(messageDiscarded)
scalar phasetwo.R2.pppg$o[1].channel utilization:last 0.016053601251962
attr source timeavg(channelBusy)
scalar phasetwo.R2.pppg$o[1].channel packets:count 399
attr interpolationmode none
attr source constant1(messageSent)
scalar phasetwo.R2.pppg$o[1].channel packetBytes:sum 39817
attr interpolationmode none
attr source packetBytes(messageSent)
attr unit B
scalar phasetwo.R2.pppg$o[1].channel throughput:last 256.86538734404
attr source sumPerDuration(packetBits(messageSent))
attr unit bps
scalar phasetwo.R2.pppg$o[2].channel packetsDiscarded:count 0
attr interpolationmode none
attr source constant1(messageDiscarded)
scalar phasetwo.R2.pppg$o[2].channel utilization:last 0.99882440577683
attr source timeavg(channelBusy)
scalar phasetwo.R2.pppg$o[2].channel packets:count 5402
attr interpolationmode none
attr source constant1(messageSent)
scalar phasetwo.R2.pppg$o[2].channel packetBytes:sum 2497212
attr interpolationmode none
attr source packetBytes(messageSent)
attr unit B
scalar phasetwo.R2.pppg$o[2].channel throughput:last 15984.61099236
attr source sumPerDuration(packetBits(messageSent))
attr unit bps
scalar phasetwo.R3.pppg$o[0].channel packetsDiscarded:count 0
attr interpolationmode none
attr source constant1(messageDiscarded)
scalar phasetwo.R3.pppg$o[0].channel utilization:last 0.0064365793937281
attr source timeavg(channelBusy)
scalar phasetwo.R3.pppg$o[0].channel packets:count 327
attr interpolationmode none
attr source constant1(messageSent)
scalar phasetwo.R3.pppg$o[0].channel packetBytes:sum 31929
attr interpolationmode none
attr source packetBytes(messageSent)
attr unit B
scalar phasetwo.R3.pppg$o[0].channel throughput:last 205.97365477242
attr source sumPerDuration(packetBits(messageSent))
attr unit bps
scalar phasetwo.R3.pppg$o[1].channel packetsDiscarded:count 0
attr interpolationmode none
attr source constant1(messageDiscarded)
scalar phasetwo.R3.pppg$o[1].channel utilization:last 0.96709641698762
attr source timeavg(channelBusy)
scalar phasetwo.R3.pppg$o[1].channel packets:count 5146
attr interpolationmode none
attr source constant1(messageSent)
scalar phasetwo.R3.pppg$o[1].channel packetBytes:sum 2398658
attr interpolationmode none
attr source packetBytes(messageSent)
attr unit B
scalar phasetwo.R3.pppg$o[1].channel throughput:last 15474.010585324
attr source sumPerDuration(packetBits(messageSent))
attr unit bps
scalar phasetwo.R3.pppg$o[2].channel packetsDiscarded:count 0
attr interpolationmode none
attr source constant1(messageDiscarded)
scalar phasetwo.R3.pppg$o[2].channel utilization:last 0.0090692268525725
attr source timeavg(channelBusy)
scalar phasetwo.R3.pppg$o[2].channel packets:count 230
attr interpolationmode none
attr source constant1(messageSent)
scalar phasetwo.R3.pppg$o[2].channel packetBytes:sum 22494
attr interpolationmode none
attr source packetBytes(messageSent)
attr unit B
scalar phasetwo.R3.pppg$o[2].channel throughput:last 145.11201765732
attr source sumPerDuration(packetBits(messageSent))
attr unit bps
scalar phasetwo.R4.pppg$o[0].channel packetsDiscarded:count 0
attr interpolationmode none
attr source constant1(messageDiscarded)
scalar phasetwo.R4.pppg$o[0].channel utilization:last 0.0074527620794628
attr source timeavg(channelBusy)
scalar phasetwo.R4.pppg$o[0].channel packets:count 223
attr interpolationmode none
attr source constant1(messageSent)
scalar phasetwo.R4.pppg$o[0].channel packetBytes:sum 18485
attr interpolationmode none
attr source packetBytes(messageSent)
attr unit B
scalar phasetwo.R4.pppg$o[0].channel throughput:last 119.2477991362
attr source sumPerDuration(packetBits(messageSent))
attr unit bps
scalar phasetwo.R4.pppg$o[1].channel packetsDiscarded:count 0
attr interpolationmode none
attr source constant1(messageDiscarded)
scalar phasetwo.R4.pppg$o[1].channel utilization:last 0.0089857853485097
attr source timeavg(channelBusy)
scalar phasetwo.R4.pppg$o[1].channel packets:count 229
attr interpolationmode none
attr source constant1(messageSent)
scalar phasetwo.R4.pppg$o[1].channel packetBytes:sum 22287
attr interpolationmode none
attr source packetBytes(messageSent)
attr unit B
scalar phasetwo.R4.pppg$o[1].channel throughput:last 143.77691322887
attr source sumPerDuration(packetBits(messageSent))
attr unit bps
scalar phasetwo.R5.pppg$o[0].channel packetsDiscarded:count 0
attr interpolationmode none
attr source constant1(messageDiscarded)
scalar phasetwo.R5.pppg$o[0].channel utilization:last 0.49987326165214
attr source timeavg(channelBusy)
scalar phasetwo.R5.pppg$o[0].channel packets:count 5416
attr interpolationmode none
attr source constant1(messageSent)
scalar phasetwo.R5.pppg$o[0].channel packetBytes:sum 2499254
attr interpolationmode none
attr source packetBytes(messageSent)
attr unit B
scalar phasetwo.R5.pppg$o[0].channel throughput:last 15997.656199002
attr source sumPerDuration(packetBits(messageSent))
attr unit bps
scalar phasetwo.R5.pppg$o[1].channel packetsDiscarded:count 0
attr interpolationmode none
attr source constant1(messageDiscarded)
scalar phasetwo.R5.pppg$o[1].channel utilization:last 0.012065080198806
attr source timeavg(channelBusy)
scalar phasetwo.R5.pppg$o[1].channel packets:count 363
attr interpolationmode none
attr source constant1(messageSent)
scalar phasetwo.R5.pppg$o[1].channel packetBytes:sum 29925
attr interpolationmode none
attr source packetBytes(messageSent)
attr unit B
scalar phasetwo.R5.pppg$o[1].channel throughput:last 193.04712059692
attr source sumPerDuration(packetBits(messageSent))
attr unit bps
scalar phasetwo.R5.pppg$o[2].channel packetsDiscarded:count 0
attr interpolationmode none
attr source constant1(messageDiscarded)
scalar phasetwo.R5.pppg$o[2].channel utilization:last 0.0072613033226678
attr source timeavg(channelBusy)
scalar phasetwo.R5.pppg$o[2].channel packets:count 218
attr interpolationmode none
attr source constant1(messageSent)
scalar phasetwo.R5.pppg$o[2].channel packetBytes:sum 18010
attr interpolationmode none
attr source packetBytes(messageSent)
attr unit B
scalar phasetwo.R5.pppg$o[2].channel throughput:last 116.1843664189
attr source sumPerDuration(packetBits(messageSent))
attr unit bps
scalar phasetwo.R8.pppg$o[0].channel packetsDiscarded:count 0
attr interpolationmode none
attr source constant1(messageDiscarded)
scalar phasetwo.R8.pppg$o[0].channel utilization:last 0.0051176655836431
attr source timeavg(channelBusy)
scalar phasetwo.R8.pppg$o[0].channel packets:count 294
attr interpolationmode none
attr source constant1(messageSent)
scalar phasetwo.R8.pppg$o[0].channel packetBytes:sum 25386
attr interpolationmode none
attr source packetBytes(messageSent)
attr unit B
scalar phasetwo.R8.pppg$o[0].channel throughput:last 163.76777477178
attr source sumPerDuration(packetBits(messageSent))
attr unit bps
scalar phasetwo.R8.pppg$o[1].channel packetsDiscarded:count 0
attr interpolationmode none
attr source constant1(messageDiscarded)
scalar phasetwo.R8.pppg$o[1].channel utilization:last 0.0099259264161741
attr source timeavg(channelBusy)
scalar phasetwo.R8.pppg$o[1].channel packets:count 281
attr interpolationmode none
attr source constant1(messageSent)
scalar phasetwo.R8.pppg$o[1].channel packetBytes:sum 24619
attr interpolationmode none
attr source packetBytes(messageSent)
attr unit B
scalar phasetwo.R8.pppg$o[1].channel throughput:last 158.8196251444
attr source sumPerDuration(packetBits(messageSent))
attr unit bps
scalar phasetwo.R8.pppg$o[2].channel packetsDiscarded:count 0
attr interpolationmode none
attr source constant1(messageDiscarded)
scalar phasetwo.R8.pppg$o[2].channel utilization:last 0.4089199964219
attr source timeavg(channelBusy)
scalar phasetwo.R8.pppg$o[2].channel packets:count 2489
attr interpolationmode none
attr source constant1(messageSent)
scalar phasetwo.R8.pppg$o[2].channel packetBytes:sum 1021949
attr interpolationmode none
attr source packetBytes(messageSent)
attr unit B
scalar phasetwo.R8.pppg$o[2].channel throughput:last 6543.2619109132
attr source sumPerDuration(packetBits(messageSent))
attr unit bps
scalar phasetwo.R13.pppg$o[0].channel packetsDiscarded:count 0
attr interpolationmode none
attr source constant1(messageDiscarded)
scalar phasetwo.R13.pppg$o[0].channel utilization:last 0.009866560078524
attr source timeavg(channelBusy)
scalar phasetwo.R13.pppg$o[0].channel packets:count 256
attr interpolationmode none
attr source constant1(messageSent)
scalar phasetwo.R13.pppg$o[0].channel packetBytes:sum 24472
attr interpolationmode none
attr source packetBytes(messageSent)
attr unit B
scalar phasetwo.R13.pppg$o[0].channel throughput:last 157.86973497091
attr source sumPerDuration(packetBits(messageSent))
attr unit bps
scalar phasetwo.R13.pppg$o[1].channel packetsDiscarded:count 0
attr interpolationmode none
attr source constant1(messageDiscarded)
scalar phasetwo.R13.pppg$o[1].channel utilization:last 0.0062359324814454
attr source timeavg(channelBusy)
scalar phasetwo.R13.pppg$o[1].channel packets:count 201
attr interpolationmode none
attr source constant1(messageSent)
scalar phasetwo.R13.pppg$o[1].channel packetBytes:sum 15467
attr interpolationmode none
attr source packetBytes(messageSent)
attr unit B
scalar phasetwo.R13.pppg$o[1].channel throughput:last 99.777936812831
attr source sumPerDuration(packetBits(messageSent))
attr unit bps
scalar phasetwo.R6.pppg$o[0].channel packetsDiscarded:count 0
attr interpolationmode none
attr source constant1(messageDiscarded)
scalar phasetwo.R6.pppg$o[0].channel utilization:last 0.0037545619658749
attr source timeavg(channelBusy)
scalar phasetwo.R6.pppg$o[0].channel packets:count 232
attr interpolationmode none
attr source constant1(messageSent)
scalar phasetwo.R6.pppg$o[0].channel packetBytes:sum 18624
attr interpolationmode none
attr source packetBytes(messageSent)
attr unit B
scalar phasetwo.R6.pppg$o[0].channel throughput:last 120.1477995251
attr source sumPerDuration(packetBits(messageSent))
attr unit bps
scalar phasetwo.R6.pppg$o[1].channel packetsDiscarded:count 0
attr interpolationmode none
attr source constant1(messageDiscarded)
scalar phasetwo.R6.pppg$o[1].channel utilization:last 0.0048581820308672
attr source timeavg(channelBusy)
scalar phasetwo.R6.pppg$o[1].channel packets:count 237
attr interpolationmode none
attr source constant1(messageSent)
scalar phasetwo.R6.pppg$o[1].channel packetBytes:sum 24099
attr interpolationmode none
attr source packetBytes(messageSent)
attr unit B
scalar phasetwo.R6.pppg$o[1].channel throughput:last 155.46417552075
attr source sumPerDuration(packetBits(messageSent))
attr unit bps
scalar phasetwo.R6.pppg$o[2].channel packetsDiscarded:count 0
attr interpolationmode none
attr source constant1(messageDiscarded)
scalar phasetwo.R6.pppg$o[2].channel utilization:last 0.50050193539121
attr source timeavg(channelBusy)
scalar phasetwo.R6.pppg$o[2].channel packets:count 5461
attr interpolationmode none
attr source constant1(messageSent)
scalar phasetwo.R6.pppg$o[2].channel packetBytes:sum 2502669
attr interpolationmode none
attr source packetBytes(messageSent)
attr unit B
scalar phasetwo.R6.pppg$o[2].channel throughput:last 16017.775725412
attr source sumPerDuration(packetBits(messageSent))
attr unit bps
scalar phasetwo.R11.pppg$o[0].channel packetsDiscarded:count 0
attr interpolationmode none
attr source constant1(messageDiscarded)
scalar phasetwo.R11.pppg$o[0].channel utilization:last 0.12792742396917
attr source timeavg(channelBusy)
scalar phasetwo.R11.pppg$o[0].channel packets:count 1707
attr interpolationmode none
attr source constant1(messageSent)
scalar phasetwo.R11.pppg$o[0].channel packetBytes:sum 639499
attr interpolationmode none
attr source packetBytes(messageSent)
attr unit B
scalar phasetwo.R11.pppg$o[0].channel throughput:last 4093.8470888885
attr source sumPerDuration(packetBits(messageSent))
attr unit bps
scalar phasetwo.R11.pppg$o[1].channel packetsDiscarded:count 0
attr interpolationmode none
attr source constant1(messageDiscarded)
scalar phasetwo.R11.pppg$o[1].channel utilization:last 0.0044523994970525
attr source timeavg(channelBusy)
scalar phasetwo.R11.pppg$o[1].channel packets:count 222
attr interpolationmode none
attr source constant1(messageSent)
scalar phasetwo.R11.pppg$o[1].channel packetBytes:sum 22086
attr interpolationmode none
attr source packetBytes(messageSent)
attr unit B
scalar phasetwo.R11.pppg$o[1].channel throughput:last 142.47893812041
attr source sumPerDuration(packetBits(messageSent))
attr unit bps
scalar phasetwo.R11.pppg$o[2].channel packetsDiscarded:count 0
attr interpolationmode none
attr source constant1(messageDiscarded)
scalar phasetwo.R11.pppg$o[2].channel utilization:last 0.0069863921433299
attr source timeavg(channelBusy)
scalar phasetwo.R11.pppg$o[2].channel packets:count 224
attr interpolationmode none
attr source constant1(messageSent)
scalar phasetwo.R11.pppg$o[2].channel packetBytes:sum 17328
attr interpolationmode none
attr source packetBytes(messageSent)
attr unit B
scalar phasetwo.R11.pppg$o[2].channel throughput:last 111.78565456691
attr source sumPerDuration(packetBits(messageSent))
attr unit bps
scalar phasetwo.R10.pppg$o[0].channel packetsDiscarded:count 0
attr interpolationmode none
attr source constant1(messageDiscarded)
scalar phasetwo.R10.pppg$o[0].channel utilization:last 0.0031821688175307
attr source timeavg(channelBusy)
scalar phasetwo.R10.pppg$o[0].channel packets:count 203
attr interpolationmode none
attr source constant1(messageSent)
scalar phasetwo.R10.pppg$o[0].channel packetBytes:sum 15785
attr interpolationmode none
attr source packetBytes(messageSent)
attr unit B
scalar phasetwo.R10.pppg$o[0].channel throughput:last 101.83094180264
attr source sumPerDuration(packetBits(messageSent))
attr unit bps
scalar phasetwo.R10.pppg$o[1].channel packetsDiscarded:count 0
attr interpolationmode none
attr source constant1(messageDiscarded)
scalar phasetwo.R10.pppg$o[1].channel utilization:last 0.010864106485705
attr source timeavg(channelBusy)
scalar phasetwo.R10.pppg$o[1].channel packets:count 294
attr interpolationmode none
attr source constant1(messageSent)
scalar phasetwo.R10.pppg$o[1].channel packetBytes:sum 26946
attr interpolationmode none
attr source packetBytes(messageSent)
attr unit B
scalar phasetwo.R10.pppg$o[1].channel throughput:last 173.83096016758
attr source sumPerDuration(packetBits(messageSent))
attr unit bps
scalar phasetwo.R10.pppg$o[2].channel packetsDiscarded:count 0
attr interpolationmode none
attr source constant1(messageDiscarded)
scalar phasetwo.R10.pppg$o[2].channel utilization:last 0.008869915827758
attr source timeavg(channelBusy)
scalar phasetwo.R10.pppg$o[2].channel packets:count 220
attr interpolationmode none
attr source constant1(messageSent)
scalar phasetwo.R10.pppg$o[2].channel packetBytes:sum 22000
attr interpolationmode none
attr source packetBytes(messageSent)
attr unit B
scalar phasetwo.R10.pppg$o[2].channel throughput:last 141.92294475972
attr source sumPerDuration(packetBits(messageSent))
attr unit bps
scalar phasetwo.R14.pppg$o[0].channel packetsDiscarded:count 0
attr interpolationmode none
attr source constant1(messageDiscarded)
scalar phasetwo.R14.pppg$o[0].channel utilization:last 0.0091583340425179
attr source timeavg(channelBusy)
scalar phasetwo.R14.pppg$o[0].channel packets:count 269
attr interpolationmode none
attr source constant1(messageSent)
scalar phasetwo.R14.pppg$o[0].channel packetBytes:sum 22715
attr interpolationmode none
attr source packetBytes(messageSent)
attr unit B
scalar phasetwo.R14.pppg$o[0].channel throughput:last 146.53777581137
attr source sumPerDuration(packetBits(messageSent))
attr unit bps
scalar phasetwo.R14.pppg$o[1].channel packetsDiscarded:count 0
attr interpolationmode none
attr source constant1(messageDiscarded)
scalar phasetwo.R14.pppg$o[1].channel utilization:last 0.0082728526010048
attr source timeavg(channelBusy)
scalar phasetwo.R14.pppg$o[1].channel packets:count 241
attr interpolationmode none
attr source constant1(messageSent)
scalar phasetwo.R14.pppg$o[1].channel packetBytes:sum 20519
attr interpolationmode none
attr source packetBytes(messageSent)
attr unit B
scalar phasetwo.R14.pppg$o[1].channel throughput:last 132.36964427662
attr source sumPerDuration(packetBits(messageSent))
attr unit bps
scalar phasetwo.R14.ethg$o[0].channel packetsDiscarded:count 0
attr interpolationmode none
attr source constant1(messageDiscarded)
scalar phasetwo.R14.ethg$o[0].channel utilization:last 4.2105822398137e-05
attr source timeavg(channelBusy)
scalar phasetwo.R14.ethg$o[0].channel packets:count 1620
attr interpolationmode none
attr source constant1(messageSent)
scalar phasetwo.R14.ethg$o[0].channel packetBytes:sum 657818
attr interpolationmode none
attr source packetBytes(messageSent)
attr unit B
scalar phasetwo.R14.ethg$o[0].channel throughput:last 4210.5823007235
attr source sumPerDuration(packetBits(messageSent))
attr unit bps
scalar phasetwo.R12.pppg$o[0].channel packetsDiscarded:count 0
attr interpolationmode none
attr source constant1(messageDiscarded)
scalar phasetwo.R12.pppg$o[0].channel utilization:last 0.0035127619120679
attr source timeavg(channelBusy)
scalar phasetwo.R12.pppg$o[0].channel packets:count 227
attr interpolationmode none
attr source constant1(messageSent)
scalar phasetwo.R12.pppg$o[0].channel packetBytes:sum 17425
attr interpolationmode none
attr source packetBytes(messageSent)
attr unit B
scalar phasetwo.R12.pppg$o[0].channel throughput:last 112.41008076946
attr source sumPerDuration(packetBits(messageSent))
attr unit bps
scalar phasetwo.R12.pppg$o[1].channel packetsDiscarded:count 0
attr interpolationmode none
attr source constant1(messageDiscarded)
scalar phasetwo.R12.pppg$o[1].channel utilization:last 0.010677371341671
attr source timeavg(channelBusy)
scalar phasetwo.R12.pppg$o[1].channel packets:count 289
attr interpolationmode none
attr source constant1(messageSent)
scalar phasetwo.R12.pppg$o[1].channel packetBytes:sum 26483
attr interpolationmode none
attr source packetBytes(messageSent)
attr unit B
scalar phasetwo.R12.pppg$o[1].channel throughput:last 170.84310748446
attr source sumPerDuration(packetBits(messageSent))
attr unit bps
scalar phasetwo.R12.pppg$o[2].channel packetsDiscarded:count 0
attr interpolationmode none
attr source constant1(messageDiscarded)
scalar phasetwo.R12.pppg$o[2].channel utilization:last 0.25659215077007
attr source timeavg(channelBusy)
scalar phasetwo.R12.pppg$o[2].channel packets:count 1738
attr interpolationmode none
attr source constant1(messageSent)
scalar phasetwo.R12.pppg$o[2].channel packetBytes:sum 641396
attr interpolationmode none
attr source packetBytes(messageSent)
attr unit B
scalar phasetwo.R12.pppg$o[2].channel throughput:last 4105.8144184776
attr source sumPerDuration(packetBits(messageSent))
attr unit bps
scalar phasetwo.R7.pppg$o[0].channel packetsDiscarded:count 0
attr interpolationmode none
attr source constant1(messageDiscarded)
scalar phasetwo.R7.pppg$o[0].channel utilization:last 0.0032333383982796
attr source timeavg(channelBusy)
scalar phasetwo.R7.pppg$o[0].channel packets:count 205
attr interpolationmode none
attr source constant1(messageSent)
scalar phasetwo.R7.pppg$o[0].channel packetBytes:sum 16039
attr interpolationmode none
attr source packetBytes(messageSent)
attr unit B
scalar phasetwo.R7.pppg$o[0].channel throughput:last 103.46839312706
attr source sumPerDuration(packetBits(messageSent))
attr unit bps
scalar phasetwo.R7.pppg$o[1].channel packetsDiscarded:count 0
attr interpolationmode none
attr source constant1(messageDiscarded)
scalar phasetwo.R7.pppg$o[1].channel utilization:last 0.010729837980522
attr source timeavg(channelBusy)
scalar phasetwo.R7.pppg$o[1].channel packets:count 279
attr interpolationmode none
attr source constant1(messageSent)
scalar phasetwo.R7.pppg$o[1].channel packetBytes:sum 26613
attr interpolationmode none
attr source packetBytes(messageSent)
attr unit B
scalar phasetwo.R7.pppg$o[1].channel throughput:last 171.68259911681
attr source sumPerDuration(packetBits(messageSent))
attr unit bps
scalar phasetwo.R9.pppg$o[0].channel packetsDiscarded:count 0
attr interpolationmode none
attr source constant1(messageDiscarded)
scalar phasetwo.R9.pppg$o[0].channel utilization:last 0.0068775212856441
attr source timeavg(channelBusy)
scalar phasetwo.R9.pppg$o[0].channel packets:count 218
attr interpolationmode none
attr source constant1(messageSent)
scalar phasetwo.R9.pppg$o[0].channel packetBytes:sum 17058
attr interpolationmode none
attr source packetBytes(messageSent)
attr unit B
scalar phasetwo.R9.pppg$o[0].channel throughput:last 110.04366816295
attr source sumPerDuration(packetBits(messageSent))
attr unit bps
scalar phasetwo.R9.pppg$o[1].channel packetsDiscarded:count 0
attr interpolationmode none
attr source constant1(messageDiscarded)
scalar phasetwo.R9.pppg$o[1].channel utilization:last 0.2554837536076
attr source timeavg(channelBusy)
scalar phasetwo.R9.pppg$o[1].channel packets:count 1698
attr interpolationmode none
attr source constant1(messageSent)
scalar phasetwo.R9.pppg$o[1].channel packetBytes:sum 638544
attr interpolationmode none
attr source packetBytes(messageSent)
attr unit B
scalar phasetwo.R9.pppg$o[1].channel throughput:last 4088.0786383031
attr source sumPerDuration(packetBits(messageSent))
attr unit bps
scalar phasetwo.H1.lo[0].lo rcvdPkFromHl:count 0
attr interpolationmode none
attr source packetReceivedFromUpper
attr title "packets received from higher layer, count"
scalar phasetwo.H1.lo[0].lo rcvdPkFromHl:sum(packetBytes) 0
attr interpolationmode none
attr source packetReceivedFromUpper
attr title "packets received from higher layer, sum(packetBytes)"
scalar phasetwo.H1.lo[0].lo passedUpPk:count 0
attr interpolationmode none
attr source packetSentToUpper
attr title "packets passed to higher layer, count"
scalar phasetwo.H1.lo[0].lo passedUpPk:sum(packetBytes) 0
attr interpolationmode none
attr source packetSentToUpper
attr title "packets passed to higher layer, sum(packetBytes)"
scalar phasetwo.H1.eth[0].mac.queue.classifier packetPushed:count 51813
attr interpolationmode none
attr title "packets pushed, count"
scalar phasetwo.H1.eth[0].mac.queue.classifier packetPushed:sum(packetBytes) 21115732
attr interpolationmode none
attr title "packets pushed, sum(packetBytes)"
scalar phasetwo.H1.eth[0].mac.queue.classifier packetDropped:count 0
attr interpolationmode none
attr title "packets dropped, count"
scalar phasetwo.H1.eth[0].mac.queue.classifier packetDropped:sum(packetBytes) 0
attr interpolationmode none
attr title "packets dropped, sum(packetBytes)"
scalar phasetwo.H1.eth[0].mac.queue.pauseQueue packetPopped:count 0
attr interpolationmode none
attr title "packet popped, count"
scalar phasetwo.H1.eth[0].mac.queue.pauseQueue packetPopped:sum(packetBytes) 0
attr interpolationmode none
attr title "packet popped, sum(packetBytes)"
statistic phasetwo.H1.eth[0].mac.queue.pauseQueue queueingTime:histogram
field count 0
field mean nan
field stddev nan
field min nan
field max nan
field sum 0
field sqrsum 0
attr interpolationmode none
attr source queueingTime(packetPopped)
attr title "queueing times, histogram"
attr unit s
bin	-inf	0
bin	0	0
bin	1	0
scalar phasetwo.H1.eth[0].mac.queue.pauseQueue queueLength:max nan
attr interpolationmode sample-hold
attr source "count(packetPushed) - count(packetPopped) - count(packetRemoved) - count(packetDropped)"
attr title "queue length, max"
scalar phasetwo.H1.eth[0].mac.queue.pauseQueue queueLength:timeavg nan
attr interpolationmode sample-hold
attr source "count(packetPushed) - count(packetPopped) - count(packetRemoved) - count(packetDropped)"
attr title "queue length, timeavg"
scalar phasetwo.H1.eth[0].mac.queue.pauseQueue packetPushed:count 0
attr interpolationmode none
attr title "packet pushed, count"
scalar phasetwo.H1.eth[0].mac.queue.pauseQueue packetPushed:sum(packetBytes) 0
attr interpolationmode none
attr title "packet pushed, sum(packetBytes)"
scalar phasetwo.H1.eth[0].mac.queue.pauseQueue packetDropQueueOverflow:count 0
attr interpolationmode none
attr source packetDropReasonIsQueueOverflow(packetDropped)
attr title "packet drops: queue overflow, count"
scalar phasetwo.H1.eth[0].mac.queue.pauseQueue packetDropQueueOverflow:sum(packetBytes) 0
attr interpolationmode none
attr source packetDropReasonIsQueueOverflow(packetDropped)
attr title "packet drops: queue overflow, sum(packetBytes)"
scalar phasetwo.H1.eth[0].mac.queue.pauseQueue packetRemoved:count 0
attr interpolationmode none
attr title "packets removed, count"
scalar phasetwo.H1.eth[0].mac.queue.pauseQueue packetRemoved:sum(packetBytes) 0
attr interpolationmode none
attr title "packets removed, sum(packetBytes)"
scalar phasetwo.H1.eth[0].mac.queue.dataQueue packetPopped:count 51813
attr interpolationmode none
attr title "packet popped, count"
scalar phasetwo.H1.eth[0].mac.queue.dataQueue packetPopped:sum(packetBytes) 21115732
attr interpolationmode none
attr title "packet popped, sum(packetBytes)"
statistic phasetwo.H1.eth[0].mac.queue.dataQueue queueingTime:histogram
field count 51813
field mean 3.4305616351109e-08
field stddev 1.0455169856066e-06
field min 0
field max 3.669675e-05
field sum 0.0017774769
field sqrsum 5.6696973450351e-08
attr interpolationmode none
attr source queueingTime(packetPopped)
attr title "queueing times, histogram"
attr unit s
bin	-inf	0
bin	0	51748
bin	8e-07	0
bin	1.6e-06	0
bin	2.4e-06	0
bin	3.2e-06	0
bin	4e-06	0
bin	4.8e-06	0
bin	5.6e-06	0
bin	6.4e-06	3
bin	7.2e-06	0
bin	8e-06	6
bin	8.8e-06	0
bin	9.6e-06	3
bin	1.04e-05	0
bin	1.12e-05	0
bin	1.2e-05	0
bin	1.28e-05	0
bin	1.36e-05	0
bin	1.44e-05	0
bin	1.52e-05	0
bin	1.6e-05	0
bin	1.68e-05	2
bin	1.76e-05	0
bin	1.84e-05	0
bin	1.92e-05	0
bin	2e-05	0
bin	2.08e-05	0
bin	2.16e-05	15
bin	2.24e-05	0
bin	2.32e-05	0
bin	2.4e-05	0
bin	2.48e-05	0
bin	2.56e-05	0
bin	2.64e-05	0
bin	2.72e-05	0
bin	2.8e-05	0
bin	2.88e-05	1
bin	2.96e-05	0
bin	3.04e-05	0
bin	3.12e-05	0
bin	3.2e-05	0
bin	3.28e-05	0
bin	3.36e-05	0
bin	3.44e-05	0
bin	3.52e-05	0
bin	3.6e-05	35
bin	3.68e-05	0
scalar phasetwo.H1.eth[0].mac.queue.dataQueue queueLength:max 1
attr interpolationmode sample-hold
attr source "count(packetPushed) - count(packetPopped) - count(packetRemoved) - count(packetDropped)"
attr title "queue length, max"
scalar phasetwo.H1.eth[0].mac.queue.dataQueue queueLength:timeavg 1.4231200160128e-06
attr interpolationmode sample-hold
attr source "count(packetPushed) - count(packetPopped) - count(packetRemoved) - count(packetDropped)"
attr title "queue length, timeavg"
scalar phasetwo.H1.eth[0].mac.queue.dataQueue packetPushed:count 51813
attr interpolationmode none
attr title "packet pushed, count"
scalar phasetwo.H1.eth[0].mac.queue.dataQueue packetPushed:sum(packetBytes) 21115732
attr interpolationmode none
attr title "packet pushed, sum(packetBytes)"
scalar phasetwo.H1.eth[0].mac.queue.dataQueue packetDropQueueOverflow:count 0
attr interpolationmode none
attr source packetDropReasonIsQueueOverflow(packetDropped)
attr title "packet drops: queue overflow, count"
scalar phasetwo.H1.eth[0].mac.queue.dataQueue packetDropQueueOverflow:sum(packetBytes) 0
attr interpolationmode none
attr source packetDropReasonIsQueueOverflow(packetDropped)
attr title "packet drops: queue overflow, sum(packetBytes)"
scalar phasetwo.H1.eth[0].mac.queue.dataQueue packetRemoved:count 0
attr interpolationmode none
attr title "packets removed, count"
scalar phasetwo.H1.eth[0].mac.queue.dataQueue packetRemoved:sum(packetBytes) 0
attr interpolationmode none
attr title "packets removed, sum(packetBytes)"
scalar phasetwo.H1.eth[0].mac.queue.scheduler packetPopped:count 51813
attr interpolationmode none
attr title "packets popped, count"
scalar phasetwo.H1.eth[0].mac.queue.scheduler packetPopped:sum(packetBytes) 21115732
attr interpolationmode none
attr title "packets popped, sum(packetBytes)"
scalar phasetwo.H1.eth[0].mac.queue packetPopped:count 51813
attr interpolationmode none
attr source localSignal(packetPopped)
attr title "packets popped, count"
scalar phasetwo.H1.eth[0].mac.queue packetPopped:sum(packetBytes) 21115732
attr interpolationmode none
attr source localSignal(packetPopped)
attr title "packets popped, sum(packetBytes)"
statistic phasetwo.H1.eth[0].mac.queue queueingTime:histogram
field count 155439
field mean 3.4305616351109e-08
field stddev 1.0455102593212e-06
field min 0
field max 3.669675e-05
field sum 0.0053324307
field sqrsum 1.7009092035105e-07
attr interpolationmode none
attr source queueingTime(packetPopped)
attr title "queueing times, histogram"
attr unit s
bin	-inf	0
bin	0	155244
bin	8e-07	0
bin	1.6e-06	0
bin	2.4e-06	0
bin	3.2e-06	0
bin	4e-06	0
bin	4.8e-06	0
bin	5.6e-06	0
bin	6.4e-06	9
bin	7.2e-06	0
bin	8e-06	18
bin	8.8e-06	0
bin	9.6e-06	9
bin	1.04e-05	0
bin	1.12e-05	0
bin	1.2e-05	0
bin	1.28e-05	0
bin	1.36e-05	0
bin	1.44e-05	0
bin	1.52e-05	0
bin	1.6e-05	0
bin	1.68e-05	6
bin	1.76e-05	0
bin	1.84e-05	0
bin	1.92e-05	0
bin	2e-05	0
bin	2.08e-05	0
bin	2.16e-05	45
bin	2.24e-05	0
bin	2.32e-05	0
bin	2.4e-05	0
bin	2.48e-05	0
bin	2.56e-05	0
bin	2.64e-05	0
bin	2.72e-05	0
bin	2.8e-05	0
bin	2.88e-05	3
bin	2.96e-05	0
bin	3.04e-05	0
bin	3.12e-05	0
bin	3.2e-05	0
bin	3.28e-05	0
bin	3.36e-05	0
bin	3.44e-05	0
bin	3.52e-05	0
bin	3.6e-05	105
bin	3.68e-05	0
scalar phasetwo.H1.eth[0].mac.queue queueLength:max 1
attr interpolationmode sample-hold
attr source "count(localSignal(packetPushed)) - count(localSignal(packetPopped)) - count(localSignal(packetRemoved)) - count(packetDropped)"
attr title "queue length, max"
scalar phasetwo.H1.eth[0].mac.queue queueLength:timeavg 1.4231200160128e-06
attr interpolationmode sample-hold
attr source "count(localSignal(packetPushed)) - count(localSignal(packetPopped)) - count(localSignal(packetRemoved)) - count(packetDropped)"
attr title "queue length, timeavg"
scalar phasetwo.H1.eth[0].mac.queue packetPushed:count 51813
attr interpolationmode none
attr source localSignal(packetPushed)
attr title "packets pushed, count"
scalar phasetwo.H1.eth[0].mac.queue packetPushed:sum(packetBytes) 21115732
attr interpolationmode none
attr source localSignal(packetPushed)
attr title "packets pushed, sum(packetBytes)"
scalar phasetwo.H1.eth[0].mac.queue packetDropQueueOverflow:count 0
attr interpolationmode none
attr source packetDropReasonIsQueueOverflow(packetDropped)
attr title "packets dropped: queue overflow, count"
scalar phasetwo.H1.eth[0].mac.queue packetDropQueueOverflow:sum(packetBytes) 0
attr interpolationmode none
attr source packetDropReasonIsQueueOverflow(packetDropped)
attr title "packets dropped: queue overflow, sum(packetBytes)"
scalar phasetwo.H1.eth[0].mac.queue packetRemoved:count 0
attr interpolationmode none
attr source localSignal(packetRemoved)
attr title "packets removed, count"
scalar phasetwo.H1.eth[0].mac.queue packetRemoved:sum(packetBytes) 0
attr interpolationmode none
attr source localSignal(packetRemoved)
attr title "packets removed, sum(packetBytes)"
scalar phasetwo.H1.eth[0].mac "simulated time" 1250
scalar phasetwo.H1.eth[0].mac full-duplex 1
scalar phasetwo.H1.eth[0].mac "frames/sec sent" 41.4504
scalar phasetwo.H1.eth[0].mac "frames/sec rcvd" 0.1232
scalar phasetwo.H1.eth[0].mac "bits/sec sent" 135140.6848
scalar phasetwo.H1.eth[0].mac "bits/sec rcvd" 78.6816
scalar phasetwo.H1.eth[0].mac "rx channel idle (%)" 100
scalar phasetwo.H1.eth[0].mac "rx channel utilization (%)" 0
scalar phasetwo.H1.eth[0].mac txPk:count 51813
attr interpolationmode none
attr source packetSentToLower
attr title "packets transmitted, count"
scalar phasetwo.H1.eth[0].mac txPk:sum(packetBytes) 21115732
attr interpolationmode none
attr source packetSentToLower
attr title "packets transmitted, sum(packetBytes)"
scalar phasetwo.H1.eth[0].mac packetReceivedFromUpper:count 51813
attr interpolationmode none
attr source packetReceivedFromUpper
attr title "packet bytes from higher layer, count"
scalar phasetwo.H1.eth[0].mac packetReceivedFromUpper:sum(packetBytes) 21115426
attr interpolationmode none
attr source packetReceivedFromUpper
attr title "packet bytes from higher layer, sum(packetBytes)"
scalar phasetwo.H1.eth[0].mac passedUpPk:count 154
attr interpolationmode none
attr source packetSentToUpper
attr title "packets passed to higher layer, count"
scalar phasetwo.H1.eth[0].mac passedUpPk:sum(packetBytes) 12294
attr interpolationmode none
attr source packetSentToUpper
attr title "packets passed to higher layer, sum(packetBytes)"
scalar phasetwo.H1.eth[0].mac packetDropIncorrectlyReceived:count 0
attr interpolationmode none
attr source packetDropReasonIsIncorrectlyReceived(packetDropped)
attr title "packet drop: incorrectly received, count"
scalar phasetwo.H1.eth[0].mac packetDropIncorrectlyReceived:sum(packetBytes) 0
attr interpolationmode none
attr source packetDropReasonIsIncorrectlyReceived(packetDropped)
attr title "packet drop: incorrectly received, sum(packetBytes)"
scalar phasetwo.H1.eth[0].mac packetDropInterfaceDown:count 0
attr interpolationmode none
attr source packetDropReasonIsInterfaceDown(packetDropped)
attr title "packet drop: interface down, count"
scalar phasetwo.H1.eth[0].mac packetDropInterfaceDown:sum(packetBytes) 0
attr interpolationmode none
attr source packetDropReasonIsInterfaceDown(packetDropped)
attr title "packet drop: interface down, sum(packetBytes)"
scalar phasetwo.H1.eth[0].mac packetDropNotAddressedToUs:count 0
attr interpolationmode none
attr source packetDropReasonIsNotAddressedToUs(packetDropped)
attr title "packet drop: not addressed to us, count"
scalar phasetwo.H1.eth[0].mac packetDropNotAddressedToUs:sum(packetBytes) 0
attr interpolationmode none
attr source packetDropReasonIsNotAddressedToUs(packetDropped)
attr title "packet drop: not addressed to us, sum(packetBytes)"
scalar phasetwo.H1.eth[0].mac rxPausePkUnits:count 0
attr interpolationmode none
attr title "pause units received, count"
scalar phasetwo.H1.eth[0].mac rxPausePkUnits:sum 0
attr interpolationmode none
attr title "pause units received, sum"
scalar phasetwo.H1.eth[0].mac txPausePkUnits:count 0
attr interpolationmode none
attr title "pause units sent, count"
scalar phasetwo.H1.eth[0].mac txPausePkUnits:sum 0
attr interpolationmode none
attr title "pause units sent, sum"
scalar phasetwo.H1.eth[0].mac rxPkOk:count 154
attr interpolationmode none
attr source rxPkOk
attr title "packets received OK, count"
scalar phasetwo.H1.eth[0].mac rxPkOk:sum(packetBytes) 12294
attr interpolationmode none
attr source rxPkOk
attr title "packets received OK, sum(packetBytes)"
scalar phasetwo.H1.eth[0].encap pauseSent:count 0
attr title "pause sent, count"
scalar phasetwo.H1.eth[0].encap pauseSent:sum 0
attr title "pause sent, sum"
scalar phasetwo.H1.eth[0].encap decapPk:count 154
attr interpolationmode none
attr source decapPk
attr title "packets decapsulated, count"
scalar phasetwo.H1.eth[0].encap decapPk:sum(packetBytes) 9522
attr interpolationmode none
attr source decapPk
attr title "packets decapsulated, sum(packetBytes)"
scalar phasetwo.H1.eth[0].encap encapPk:count 51813
attr interpolationmode none
attr source encapPk
attr title "packets encapsulated, count"
scalar phasetwo.H1.eth[0].encap encapPk:sum(packetBytes) 20182792
attr interpolationmode none
attr source encapPk
attr title "packets encapsulated, sum(packetBytes)"
scalar phasetwo.H1.ipv4.ip packetDropAddressResolutionFailed:count 0
attr interpolationmode none
attr source packetDropReasonIsAddressResolutionFailed(packetDropped)
attr title "packet drop: address resolution failed, count"
scalar phasetwo.H1.ipv4.ip packetDropAddressResolutionFailed:sum(packetBytes) 0
attr interpolationmode none
attr source packetDropReasonIsAddressResolutionFailed(packetDropped)
attr title "packet drop: address resolution failed, sum(packetBytes)"
scalar phasetwo.H1.ipv4.ip packetDropHopLimitReached:count 0
attr interpolationmode none
attr source packetDropReasonIsHopLimitReached(packetDropped)
attr title "packet drop: hop limit reached, count"
scalar phasetwo.H1.ipv4.ip packetDropHopLimitReached:sum(packetBytes) 0
attr interpolationmode none
attr source packetDropReasonIsHopLimitReached(packetDropped)
attr title "packet drop: hop limit reached, sum(packetBytes)"
scalar phasetwo.H1.ipv4.ip packetDropForwardingDisabled:count 0
attr interpolationmode none
attr source packetDropReasonIsForwardingDisabled(packetDropped)
attr title "packet drop: forwarding disabled, count"
scalar phasetwo.H1.ipv4.ip packetDropForwardingDisabled:sum(packetBytes) 0
attr interpolationmode none
attr source packetDropReasonIsForwardingDisabled(packetDropped)
attr title "packet drop: forwarding disabled, sum(packetBytes)"
scalar phasetwo.H1.ipv4.ip packetDropNoInterfaceFound:count 0
attr interpolationmode none
attr source packetDropReasonIsNoInterfaceFound(packetDropped)
attr title "packet drop: no interface found, count"
scalar phasetwo.H1.ipv4.ip packetDropNoInterfaceFound:sum(packetBytes) 0
attr interpolationmode none
attr source packetDropReasonIsNoInterfaceFound(packetDropped)
attr title "packet drop: no interface found, sum(packetBytes)"
scalar phasetwo.H1.ipv4.ip packetDropNoRouteFound:count 0
attr interpolationmode none
attr source packetDropReasonIsNoRouteFound(packetDropped)
attr title "packet drop: no route found, count"
scalar phasetwo.H1.ipv4.ip packetDropNoRouteFound:sum(packetBytes) 0
attr interpolationmode none
attr source packetDropReasonIsNoRouteFound(packetDropped)
attr title "packet drop: no route found, sum(packetBytes)"
scalar phasetwo.H1.ipv4.ip packetDropUndefined:count 0
attr interpolationmode none
attr source packetDropReasonIsUndefined(packetDropped)
attr title "packet drop: undefined, count"
scalar phasetwo.H1.ipv4.ip packetDropUndefined:sum(packetBytes) 0
attr interpolationmode none
attr source packetDropReasonIsUndefined(packetDropped)
attr title "packet drop: undefined, sum(packetBytes)"
scalar phasetwo.H1.ipv4.arp arpReplySent:count 0
attr source arpReplySent
attr title "ARP replies sent, count"
scalar phasetwo.H1.ipv4.arp arpReplySent:sum(packetBytes) 0
attr source arpReplySent
attr title "ARP replies sent, sum(packetBytes)"
scalar phasetwo.H1.ipv4.arp arpRequestSent:count 10
attr source arpRequestSent
attr title "ARP request sent, count"
scalar phasetwo.H1.ipv4.arp arpRequestSent:sum(packetBytes) 280
attr source arpRequestSent
attr title "ARP request sent, sum(packetBytes)"
scalar phasetwo.H1.ipv4.arp arpResolutionFailed:count 0
attr title "ARP failed resolutions, count"
scalar phasetwo.H1.ipv4.arp arpResolutionCompleted:count 10
attr title "ARP completed resolutions, count"
scalar phasetwo.H1.ipv4.arp arpResolutionInitiated:count 10
attr title "ARP initiated resolutions, count"
scalar phasetwo.H1.udp packetReceived:count 0
attr interpolationmode none
attr source packetReceived
attr title "packets received, count"
scalar phasetwo.H1.udp packetReceived:sum(packetBytes) 0
attr interpolationmode none
attr source packetReceived
attr title "packets received, sum(packetBytes)"
scalar phasetwo.H1.udp packetSent:count 51766
attr interpolationmode none
attr source packetSent
attr title "packets sent, count"
scalar phasetwo.H1.udp packetSent:sum(packetBytes) 19145088
attr interpolationmode none
attr source packetSent
attr title "packets sent, sum(packetBytes)"
scalar phasetwo.H1.udp passedUpPk:count 0
attr interpolationmode none
attr source packetSentToUpper
attr title "packets passed up, count"
scalar phasetwo.H1.udp droppedPkWrongPort:count 0
attr interpolationmode none
attr source packetDropReasonIsNoPortFound(packetDropped)
attr title "packets dropped (wrong port), count"
scalar phasetwo.H1.udp droppedPkBadChecksum:count 0
attr interpolationmode none
attr source packetDropReasonIsIncorrectlyReceived(packetDropped)
attr title "packets dropped (checksum error), count"
scalar phasetwo.H1.app[0] "Total sent" 21805
scalar phasetwo.H1.app[0] "Total received" 0
scalar phasetwo.H1.app[0] "Total deleted" 0
scalar phasetwo.H1.app[0] outOfOrderPk:count 0
attr interpolationmode none
attr source outOfOrderPk
attr title "packets received out of order, count"
scalar phasetwo.H1.app[0] outOfOrderPk:sum(packetBytes) 0
attr interpolationmode none
attr source outOfOrderPk
attr title "packets received out of order, sum(packetBytes)"
scalar phasetwo.H1.app[0] packetReceived:count 0
attr interpolationmode none
attr source packetReceived
attr title "packets received, count"
scalar phasetwo.H1.app[0] packetReceived:sum(packetBytes) 0
attr interpolationmode none
attr source packetReceived
attr title "packets received, sum(packetBytes)"
scalar phasetwo.H1.app[0] packetSent:count 21805
attr interpolationmode none
attr source packetSent
attr title "packets sent, count"
scalar phasetwo.H1.app[0] packetSent:sum(packetBytes) 3750460
attr interpolationmode none
attr source packetSent
attr title "packets sent, sum(packetBytes)"
scalar phasetwo.H1.app[1] "packets sent" 29961
scalar phasetwo.H1.app[1] "packets received" 0
scalar phasetwo.H1.app[1] packetReceived:count 0
attr interpolationmode none
attr source packetReceived
attr title "packets received, count"
scalar phasetwo.H1.app[1] packetReceived:sum(packetBytes) 0
attr interpolationmode none
attr source packetReceived
attr title "packets received, sum(packetBytes)"
statistic phasetwo.H1.app[1] rcvdPkLifetime:stats
field count 0
field mean nan
field stddev nan
field min nan
field max nan
field sum 0
field sqrsum 0
attr interpolationmode none
attr source dataAge(packetReceived)
attr title "received packet lifetime, stats"
attr unit s
scalar phasetwo.H1.app[1] packetSent:count 29961
attr interpolationmode none
attr source packetSent
attr title "packets sent, count"
scalar phasetwo.H1.app[1] packetSent:sum(packetBytes) 14980500
attr interpolationmode none
attr source packetSent
attr title "packets sent, sum(packetBytes)"
scalar phasetwo.H1.app[2] numActiveSessions:max 1
attr interpolationmode sample-hold
attr source sum(connect)
attr title "number of active sessions, max"
scalar phasetwo.H1.app[2] numActiveSessions:timeavg 0.98652600616309
attr interpolationmode sample-hold
attr source sum(connect)
attr title "number of active sessions, timeavg"
scalar phasetwo.H1.app[2] numSessions:last 2
attr source sum(connect+1)/2
attr title "total number of sessions, last"
scalar phasetwo.H1.app[2] packetReceived:count 1
attr interpolationmode none
attr source packetReceived
attr title "packets received, count"
scalar phasetwo.H1.app[2] packetReceived:sum(packetBytes) 100
attr interpolationmode none
attr source packetReceived
attr title "packets received, sum(packetBytes)"
scalar phasetwo.H1.app[2] packetSent:count 2
attr interpolationmode none
attr source packetSent
attr title "packets sent, count"
scalar phasetwo.H1.app[2] packetSent:sum(packetBytes) 100
attr interpolationmode none
attr source packetSent
attr title "packets sent, sum(packetBytes)"
scalar phasetwo.H2.lo[0].lo rcvdPkFromHl:count 0
attr interpolationmode none
attr source packetReceivedFromUpper
attr title "packets received from higher layer, count"
scalar phasetwo.H2.lo[0].lo rcvdPkFromHl:sum(packetBytes) 0
attr interpolationmode none
attr source packetReceivedFromUpper
attr title "packets received from higher layer, sum(packetBytes)"
scalar phasetwo.H2.lo[0].lo passedUpPk:count 0
attr interpolationmode none
attr source packetSentToUpper
attr title "packets passed to higher layer, count"
scalar phasetwo.H2.lo[0].lo passedUpPk:sum(packetBytes) 0
attr interpolationmode none
attr source packetSentToUpper
attr title "packets passed to higher layer, sum(packetBytes)"
scalar phasetwo.H2.eth[0].mac.queue.classifier packetPushed:count 31
attr interpolationmode none
attr title "packets pushed, count"
scalar phasetwo.H2.eth[0].mac.queue.classifier packetPushed:sum(packetBytes) 2172
attr interpolationmode none
attr title "packets pushed, sum(packetBytes)"
scalar phasetwo.H2.eth[0].mac.queue.classifier packetDropped:count 0
attr interpolationmode none
attr title "packets dropped, count"
scalar phasetwo.H2.eth[0].mac.queue.classifier packetDropped:sum(packetBytes) 0
attr interpolationmode none
attr title "packets dropped, sum(packetBytes)"
scalar phasetwo.H2.eth[0].mac.queue.pauseQueue packetPopped:count 0
attr interpolationmode none
attr title "packet popped, count"
scalar phasetwo.H2.eth[0].mac.queue.pauseQueue packetPopped:sum(packetBytes) 0
attr interpolationmode none
attr title "packet popped, sum(packetBytes)"
statistic phasetwo.H2.eth[0].mac.queue.pauseQueue queueingTime:histogram
field count 0
field mean nan
field stddev nan
field min nan
field max nan
field sum 0
field sqrsum 0
attr interpolationmode none
attr source queueingTime(packetPopped)
attr title "queueing times, histogram"
attr unit s
bin	-inf	0
bin	0	0
bin	1	0
scalar phasetwo.H2.eth[0].mac.queue.pauseQueue queueLength:max nan
attr interpolationmode sample-hold
attr source "count(packetPushed) - count(packetPopped) - count(packetRemoved) - count(packetDropped)"
attr title "queue length, max"
scalar phasetwo.H2.eth[0].mac.queue.pauseQueue queueLength:timeavg nan
attr interpolationmode sample-hold
attr source "count(packetPushed) - count(packetPopped) - count(packetRemoved) - count(packetDropped)"
attr title "queue length, timeavg"
scalar phasetwo.H2.eth[0].mac.queue.pauseQueue packetPushed:count 0
attr interpolationmode none
attr title "packet pushed, count"
scalar phasetwo.H2.eth[0].mac.queue.pauseQueue packetPushed:sum(packetBytes) 0
attr interpolationmode none
attr title "packet pushed, sum(packetBytes)"
scalar phasetwo.H2.eth[0].mac.queue.pauseQueue packetDropQueueOverflow:count 0
attr interpolationmode none
attr source packetDropReasonIsQueueOverflow(packetDropped)
attr title "packet drops: queue overflow, count"
scalar phasetwo.H2.eth[0].mac.queue.pauseQueue packetDropQueueOverflow:sum(packetBytes) 0
attr interpolationmode none
attr source packetDropReasonIsQueueOverflow(packetDropped)
attr title "packet drops: queue overflow, sum(packetBytes)"
scalar phasetwo.H2.eth[0].mac.queue.pauseQueue packetRemoved:count 0
attr interpolationmode none
attr title "packets removed, count"
scalar phasetwo.H2.eth[0].mac.queue.pauseQueue packetRemoved:sum(packetBytes) 0
attr interpolationmode none
attr title "packets removed, sum(packetBytes)"
scalar phasetwo.H2.eth[0].mac.queue.dataQueue packetPopped:count 31
attr interpolationmode none
attr title "packet popped, count"
scalar phasetwo.H2.eth[0].mac.queue.dataQueue packetPopped:sum(packetBytes) 2172
attr interpolationmode none
attr title "packet popped, sum(packetBytes)"
statistic phasetwo.H2.eth[0].mac.queue.dataQueue queueingTime:histogram
field count 31
field mean 4.3354838709677e-07
field stddev 1.6781925761308e-06
field min 0
field max 6.72e-06
field sum 1.344e-05
field sqrsum 9.03168e-11
attr interpolationmode none
attr source queueingTime(packetPopped)
attr title "queueing times, histogram"
attr unit s
bin	-inf	0
bin	0	29
bin	1e-07	0
bin	2e-07	0
bin	3e-07	0
bin	4e-07	0
bin	5e-07	0
bin	6e-07	0
bin	7e-07	0
bin	8e-07	0
bin	9e-07	0
bin	1e-06	0
bin	1.1e-06	0
bin	1.2e-06	0
bin	1.3e-06	0
bin	1.4e-06	0
bin	1.5e-06	0
bin	1.6e-06	0
bin	1.7e-06	0
bin	1.8e-06	0
bin	1.9e-06	0
bin	2e-06	0
bin	2.1e-06	0
bin	2.2e-06	0
bin	2.3e-06	0
bin	2.4e-06	0
bin	2.5e-06	0
bin	2.6e-06	0
bin	2.7e-06	0
bin	2.8e-06	0
bin	2.9e-06	0
bin	3e-06	0
bin	3.1e-06	0
bin	3.2e-06	0
bin	3.3e-06	0
bin	3.4e-06	0
bin	3.5e-06	0
bin	3.6e-06	0
bin	3.7e-06	0
bin	3.8e-06	0
bin	3.9e-06	0
bin	4e-06	0
bin	4.1e-06	0
bin	4.2e-06	0
bin	4.3e-06	0
bin	4.4e-06	0
bin	4.5e-06	0
bin	4.6e-06	0
bin	4.7e-06	0
bin	4.8e-06	0
bin	4.9e-06	0
bin	5e-06	0
bin	5.1e-06	0
bin	5.2e-06	0
bin	5.3e-06	0
bin	5.4e-06	0
bin	5.5e-06	0
bin	5.6e-06	0
bin	5.7e-06	0
bin	5.8e-06	0
bin	5.9e-06	0
bin	6e-06	0
bin	6.1e-06	0
bin	6.2e-06	0
bin	6.3e-06	0
bin	6.4e-06	0
bin	6.5e-06	0
bin	6.6e-06	0
bin	6.7e-06	2
bin	6.8e-06	0
bin	6.9e-06	0
bin	7e-06	0
bin	7.1e-06	0
bin	7.2e-06	0
bin	7.3e-06	0
bin	7.4e-06	0
bin	7.5e-06	0
bin	7.6e-06	0
bin	7.7e-06	0
bin	7.8e-06	0
bin	7.9e-06	0
bin	8e-06	0
bin	8.1e-06	0
bin	8.2e-06	0
bin	8.3e-06	0
bin	8.4e-06	0
scalar phasetwo.H2.eth[0].mac.queue.dataQueue queueLength:max 1
attr interpolationmode sample-hold
attr source "count(packetPushed) - count(packetPopped) - count(packetRemoved) - count(packetDropped)"
attr title "queue length, max"
scalar phasetwo.H2.eth[0].mac.queue.dataQueue queueLength:timeavg 1.0762064883167e-08
attr interpolationmode sample-hold
attr source "count(packetPushed) - count(packetPopped) - count(packetRemoved) - count(packetDropped)"
attr title "queue length, timeavg"
scalar phasetwo.H2.eth[0].mac.queue.dataQueue packetPushed:count 31
attr interpolationmode none
attr title "packet pushed, count"
scalar phasetwo.H2.eth[0].mac.queue.dataQueue packetPushed:sum(packetBytes) 2172
attr interpolationmode none
attr title "packet pushed, sum(packetBytes)"
scalar phasetwo.H2.eth[0].mac.queue.dataQueue packetDropQueueOverflow:count 0
attr interpolationmode none
attr source packetDropReasonIsQueueOverflow(packetDropped)
attr title "packet drops: queue overflow, count"
scalar phasetwo.H2.eth[0].mac.queue.dataQueue packetDropQueueOverflow:sum(packetBytes) 0
attr interpolationmode none
attr source packetDropReasonIsQueueOverflow(packetDropped)
attr title "packet drops: queue overflow, sum(packetBytes)"
scalar phasetwo.H2.eth[0].mac.queue.dataQueue packetRemoved:count 0
attr interpolationmode none
attr title "packets removed, count"
scalar phasetwo.H2.eth[0].mac.queue.dataQueue packetRemoved:sum(packetBytes) 0
attr interpolationmode none
attr title "packets removed, sum(packetBytes)"
scalar phasetwo.H2.eth[0].mac.queue.scheduler packetPopped:count 31
attr interpolationmode none
attr title "packets popped, count"
scalar phasetwo.H2.eth[0].mac.queue.scheduler packetPopped:sum(packetBytes) 2172
attr interpolationmode none
attr title "packets popped, sum(packetBytes)"
scalar phasetwo.H2.eth[0].mac.queue packetPopped:count 31
attr interpolationmode none
attr source localSignal(packetPopped)
attr title "packets popped, count"
scalar phasetwo.H2.eth[0].mac.queue packetPopped:sum(packetBytes) 2172
attr interpolationmode none
attr source localSignal(packetPopped)
attr title "packets popped, sum(packetBytes)"
statistic phasetwo.H2.eth[0].mac.queue queueingTime:histogram
field count 93
field mean 4.3354838709677e-07
field stddev 1.6598511229477e-06
field min 0
field max 6.72e-06
field sum 4.032e-05
field sqrsum 2.709504e-10
attr interpolationmode none
attr source queueingTime(packetPopped)
attr title "queueing times, histogram"
attr unit s
bin	-inf	0
bin	0	87
bin	1e-07	0
bin	2e-07	0
bin	3e-07	0
bin	4e-07	0
bin	5e-07	0
bin	6e-07	0
bin	7e-07	0
bin	8e-07	0
bin	9e-07	0
bin	1e-06	0
bin	1.1e-06	0
bin	1.2e-06	0
bin	1.3e-06	0
bin	1.4e-06	0
bin	1.5e-06	0
bin	1.6e-06	0
bin	1.7e-06	0
bin	1.8e-06	0
bin	1.9e-06	0
bin	2e-06	0
bin	2.1e-06	0
bin	2.2e-06	0
bin	2.3e-06	0
bin	2.4e-06	0
bin	2.5e-06	0
bin	2.6e-06	0
bin	2.7e-06	0
bin	2.8e-06	0
bin	2.9e-06	0
bin	3e-06	0
bin	3.1e-06	0
bin	3.2e-06	0
bin	3.3e-06	0
bin	3.4e-06	0
bin	3.5e-06	0
bin	3.6e-06	0
bin	3.7e-06	0
bin	3.8e-06	0
bin	3.9e-06	0
bin	4e-06	0
bin	4.1e-06	0
bin	4.2e-06	0
bin	4.3e-06	0
bin	4.4e-06	0
bin	4.5e-06	0
bin	4.6e-06	0
bin	4.7e-06	0
bin	4.8e-06	0
bin	4.9e-06	0
bin	5e-06	0
bin	5.1e-06	0
bin	5.2e-06	0
bin	5.3e-06	0
bin	5.4e-06	0
bin	5.5e-06	0
bin	5.6e-06	0
bin	5.7e-06	0
bin	5.8e-06	0
bin	5.9e-06	0
bin	6e-06	0
bin	6.1e-06	0
bin	6.2e-06	0
bin	6.3e-06	0
bin	6.4e-06	0
bin	6.5e-06	0
bin	6.6e-06	0
bin	6.7e-06	6
bin	6.8e-06	0
bin	6.9e-06	0
bin	7e-06	0
bin	7.1e-06	0
bin	7.2e-06	0
bin	7.3e-06	0
bin	7.4e-06	0
bin	7.5e-06	0
bin	7.6e-06	0
bin	7.7e-06	0
bin	7.8e-06	0
bin	7.9e-06	0
bin	8e-06	0
bin	8.1e-06	0
bin	8.2e-06	0
bin	8.3e-06	0
bin	8.4e-06	0
scalar phasetwo.H2.eth[0].mac.queue queueLength:max 1
attr interpolationmode sample-hold
attr source "count(localSignal(packetPushed)) - count(localSignal(packetPopped)) - count(localSignal(packetRemoved)) - count(packetDropped)"
attr title "queue length, max"
scalar phasetwo.H2.eth[0].mac.queue queueLength:timeavg 1.0762064883167e-08
attr interpolationmode sample-hold
attr source "count(localSignal(packetPushed)) - count(localSignal(packetPopped)) - count(localSignal(packetRemoved)) - count(packetDropped)"
attr title "queue length, timeavg"
scalar phasetwo.H2.eth[0].mac.queue packetPushed:count 31
attr interpolationmode none
attr source localSignal(packetPushed)
attr title "packets pushed, count"
scalar phasetwo.H2.eth[0].mac.queue packetPushed:sum(packetBytes) 2172
attr interpolationmode none
attr source localSignal(packetPushed)
attr title "packets pushed, sum(packetBytes)"
scalar phasetwo.H2.eth[0].mac.queue packetDropQueueOverflow:count 0
attr interpolationmode none
attr source packetDropReasonIsQueueOverflow(packetDropped)
attr title "packets dropped: queue overflow, count"
scalar phasetwo.H2.eth[0].mac.queue packetDropQueueOverflow:sum(packetBytes) 0
attr interpolationmode none
attr source packetDropReasonIsQueueOverflow(packetDropped)
attr title "packets dropped: queue overflow, sum(packetBytes)"
scalar phasetwo.H2.eth[0].mac.queue packetRemoved:count 0
attr interpolationmode none
attr source localSignal(packetRemoved)
attr title "packets removed, count"
scalar phasetwo.H2.eth[0].mac.queue packetRemoved:sum(packetBytes) 0
attr interpolationmode none
attr source localSignal(packetRemoved)
attr title "packets removed, sum(packetBytes)"
scalar phasetwo.H2.eth[0].mac "simulated time" 1250
scalar phasetwo.H2.eth[0].mac full-duplex 1
scalar phasetwo.H2.eth[0].mac "frames/sec sent" 0.0248
scalar phasetwo.H2.eth[0].mac "frames/sec rcvd" 1.296
scalar phasetwo.H2.eth[0].mac "bits/sec sent" 13.9008
scalar phasetwo.H2.eth[0].mac "bits/sec rcvd" 4127.0912
scalar phasetwo.H2.eth[0].mac "rx channel idle (%)" 100
scalar phasetwo.H2.eth[0].mac "rx channel utilization (%)" 0
scalar phasetwo.H2.eth[0].mac txPk:count 31
attr interpolationmode none
attr source packetSentToLower
attr title "packets transmitted, count"
scalar phasetwo.H2.eth[0].mac txPk:sum(packetBytes) 2172
attr interpolationmode none
attr source packetSentToLower
attr title "packets transmitted, sum(packetBytes)"
scalar phasetwo.H2.eth[0].mac packetReceivedFromUpper:count 31
attr interpolationmode none
attr source packetReceivedFromUpper
attr title "packet bytes from higher layer, count"
scalar phasetwo.H2.eth[0].mac packetReceivedFromUpper:sum(packetBytes) 1890
attr interpolationmode none
attr source packetReceivedFromUpper
attr title "packet bytes from higher layer, sum(packetBytes)"
scalar phasetwo.H2.eth[0].mac passedUpPk:count 1620
attr interpolationmode none
attr source packetSentToUpper
attr title "packets passed to higher layer, count"
scalar phasetwo.H2.eth[0].mac passedUpPk:sum(packetBytes) 644858
attr interpolationmode none
attr source packetSentToUpper
attr title "packets passed to higher layer, sum(packetBytes)"
scalar phasetwo.H2.eth[0].mac packetDropIncorrectlyReceived:count 0
attr interpolationmode none
attr source packetDropReasonIsIncorrectlyReceived(packetDropped)
attr title "packet drop: incorrectly received, count"
scalar phasetwo.H2.eth[0].mac packetDropIncorrectlyReceived:sum(packetBytes) 0
attr interpolationmode none
attr source packetDropReasonIsIncorrectlyReceived(packetDropped)
attr title "packet drop: incorrectly received, sum(packetBytes)"
scalar phasetwo.H2.eth[0].mac packetDropInterfaceDown:count 0
attr interpolationmode none
attr source packetDropReasonIsInterfaceDown(packetDropped)
attr title "packet drop: interface down, count"
scalar phasetwo.H2.eth[0].mac packetDropInterfaceDown:sum(packetBytes) 0
attr interpolationmode none
attr source packetDropReasonIsInterfaceDown(packetDropped)
attr title "packet drop: interface down, sum(packetBytes)"
scalar phasetwo.H2.eth[0].mac packetDropNotAddressedToUs:count 0
attr interpolationmode none
attr source packetDropReasonIsNotAddressedToUs(packetDropped)
attr title "packet drop: not addressed to us, count"
scalar phasetwo.H2.eth[0].mac packetDropNotAddressedToUs:sum(packetBytes) 0
attr interpolationmode none
attr source packetDropReasonIsNotAddressedToUs(packetDropped)
attr title "packet drop: not addressed to us, sum(packetBytes)"
scalar phasetwo.H2.eth[0].mac rxPausePkUnits:count 0
attr interpolationmode none
attr title "pause units received, count"
scalar phasetwo.H2.eth[0].mac rxPausePkUnits:sum 0
attr interpolationmode none
attr title "pause units received, sum"
scalar phasetwo.H2.eth[0].mac txPausePkUnits:count 0
attr interpolationmode none
attr title "pause units sent, count"
scalar phasetwo.H2.eth[0].mac txPausePkUnits:sum 0
attr interpolationmode none
attr title "pause units sent, sum"
scalar phasetwo.H2.eth[0].mac rxPkOk:count 1620
attr interpolationmode none
attr source rxPkOk
attr title "packets received OK, count"
scalar phasetwo.H2.eth[0].mac rxPkOk:sum(packetBytes) 644858
attr interpolationmode none
attr source rxPkOk
attr title "packets received OK, sum(packetBytes)"
scalar phasetwo.H2.eth[0].encap pauseSent:count 0
attr title "pause sent, count"
scalar phasetwo.H2.eth[0].encap pauseSent:sum 0
attr title "pause sent, sum"
scalar phasetwo.H2.eth[0].encap decapPk:count 1620
attr interpolationmode none
attr source decapPk
attr title "packets decapsulated, count"
scalar phasetwo.H2.eth[0].encap decapPk:sum(packetBytes) 615698
attr interpolationmode none
attr source decapPk
attr title "packets decapsulated, sum(packetBytes)"
scalar phasetwo.H2.eth[0].encap encapPk:count 31
attr interpolationmode none
attr source encapPk
attr title "packets encapsulated, count"
scalar phasetwo.H2.eth[0].encap encapPk:sum(packetBytes) 1332
attr interpolationmode none
attr source encapPk
attr title "packets encapsulated, sum(packetBytes)"
scalar phasetwo.H2.ipv4.ip packetDropAddressResolutionFailed:count 0
attr interpolationmode none
attr source packetDropReasonIsAddressResolutionFailed(packetDropped)
attr title "packet drop: address resolution failed, count"
scalar phasetwo.H2.ipv4.ip packetDropAddressResolutionFailed:sum(packetBytes) 0
attr interpolationmode none
attr source packetDropReasonIsAddressResolutionFailed(packetDropped)
attr title "packet drop: address resolution failed, sum(packetBytes)"
scalar phasetwo.H2.ipv4.ip packetDropHopLimitReached:count 0
attr interpolationmode none
attr source packetDropReasonIsHopLimitReached(packetDropped)
attr title "packet drop: hop limit reached, count"
scalar phasetwo.H2.ipv4.ip packetDropHopLimitReached:sum(packetBytes) 0
attr interpolationmode none
attr source packetDropReasonIsHopLimitReached(packetDropped)
attr title "packet drop: hop limit reached, sum(packetBytes)"
scalar phasetwo.H2.ipv4.ip packetDropForwardingDisabled:count 0
attr interpolationmode none
attr source packetDropReasonIsForwardingDisabled(packetDropped)
attr title "packet drop: forwarding disabled, count"
scalar phasetwo.H2.ipv4.ip packetDropForwardingDisabled:sum(packetBytes) 0
attr interpolationmode none
attr source packetDropReasonIsForwardingDisabled(packetDropped)
attr title "packet drop: forwarding disabled, sum(packetBytes)"
scalar phasetwo.H2.ipv4.ip packetDropNoInterfaceFound:count 0
attr interpolationmode none
attr source packetDropReasonIsNoInterfaceFound(packetDropped)
attr title "packet drop: no interface found, count"
scalar phasetwo.H2.ipv4.ip packetDropNoInterfaceFound:sum(packetBytes) 0
attr interpolationmode none
attr source packetDropReasonIsNoInterfaceFound(packetDropped)
attr title "packet drop: no interface found, sum(packetBytes)"
scalar phasetwo.H2.ipv4.ip packetDropNoRouteFound:count 0
attr interpolationmode none
attr source packetDropReasonIsNoRouteFound(packetDropped)
attr title "packet drop: no route found, count"
scalar phasetwo.H2.ipv4.ip packetDropNoRouteFound:sum(packetBytes) 0
attr interpolationmode none
attr source packetDropReasonIsNoRouteFound(packetDropped)
attr title "packet drop: no route found, sum(packetBytes)"
scalar phasetwo.H2.ipv4.ip packetDropUndefined:count 0
attr interpolationmode none
attr source packetDropReasonIsUndefined(packetDropped)
attr title "packet drop: undefined, count"
scalar phasetwo.H2.ipv4.ip packetDropUndefined:sum(packetBytes) 0
attr interpolationmode none
attr source packetDropReasonIsUndefined(packetDropped)
attr title "packet drop: undefined, sum(packetBytes)"
scalar phasetwo.H2.ipv4.arp arpReplySent:count 11
attr source arpReplySent
attr title "ARP replies sent, count"
scalar phasetwo.H2.ipv4.arp arpReplySent:sum(packetBytes) 308
attr source arpReplySent
attr title "ARP replies sent, sum(packetBytes)"
scalar phasetwo.H2.ipv4.arp arpRequestSent:count 0
attr source arpRequestSent
attr title "ARP request sent, count"
scalar phasetwo.H2.ipv4.arp arpRequestSent:sum(packetBytes) 0
attr source arpRequestSent
attr title "ARP request sent, sum(packetBytes)"
scalar phasetwo.H2.ipv4.arp arpResolutionFailed:count 0
attr title "ARP failed resolutions, count"
scalar phasetwo.H2.ipv4.arp arpResolutionCompleted:count 11
attr title "ARP completed resolutions, count"
scalar phasetwo.H2.ipv4.arp arpResolutionInitiated:count 0
attr title "ARP initiated resolutions, count"
scalar phasetwo.H2.udp packetReceived:count 1478
attr interpolationmode none
attr source packetReceived
attr title "packets received, count"
scalar phasetwo.H2.udp packetReceived:sum(packetBytes) 577312
attr interpolationmode none
attr source packetReceived
attr title "packets received, sum(packetBytes)"
scalar phasetwo.H2.udp packetSent:count 0
attr interpolationmode none
attr source packetSent
attr title "packets sent, count"
scalar phasetwo.H2.udp packetSent:sum(packetBytes) 0
attr interpolationmode none
attr source packetSent
attr title "packets sent, sum(packetBytes)"
scalar phasetwo.H2.udp passedUpPk:count 1478
attr interpolationmode none
attr source packetSentToUpper
attr title "packets passed up, count"
scalar phasetwo.H2.udp droppedPkWrongPort:count 0
attr interpolationmode none
attr source packetDropReasonIsNoPortFound(packetDropped)
attr title "packets dropped (wrong port), count"
scalar phasetwo.H2.udp droppedPkBadChecksum:count 0
attr interpolationmode none
attr source packetDropReasonIsIncorrectlyReceived(packetDropped)
attr title "packets dropped (checksum error), count"
scalar phasetwo.H2.app[0] "Total sent" 0
scalar phasetwo.H2.app[0] "Total received" 446
scalar phasetwo.H2.app[0] "Total deleted" 0
scalar phasetwo.H2.app[0] outOfOrderPk:count 83
attr interpolationmode none
attr source outOfOrderPk
attr title "packets received out of order, count"
scalar phasetwo.H2.app[0] outOfOrderPk:sum(packetBytes) 14276
attr interpolationmode none
attr source outOfOrderPk
attr title "packets received out of order, sum(packetBytes)"
scalar phasetwo.H2.app[0] packetReceived:count 446
attr interpolationmode none
attr source packetReceived
attr title "packets received, count"
scalar phasetwo.H2.app[0] packetReceived:sum(packetBytes) 76712
attr interpolationmode none
attr source packetReceived
attr title "packets received, sum(packetBytes)"
scalar phasetwo.H2.app[0] packetSent:count 0
attr interpolationmode none
attr source packetSent
attr title "packets sent, count"
scalar phasetwo.H2.app[0] packetSent:sum(packetBytes) 0
attr interpolationmode none
attr source packetSent
attr title "packets sent, sum(packetBytes)"
scalar phasetwo.H2.app[1] packetReceived:count 949
attr interpolationmode none
attr source packetReceived
attr title "packets received, count"
scalar phasetwo.H2.app[1] packetReceived:sum(packetBytes) 474500
attr interpolationmode none
attr source packetReceived
attr title "packets received, sum(packetBytes)"
scalar phasetwo.H2.app[2] packetReceived:count 1
attr interpolationmode none
attr source packetReceived
attr title "packets received, count"
scalar phasetwo.H2.app[2] packetReceived:sum(packetBytes) 50
attr interpolationmode none
attr source packetReceived
attr title "packets received, sum(packetBytes)"
scalar phasetwo.H2.app[2] packetSent:count 1
attr interpolationmode none
attr source packetSent
attr title "packets sent, count"
scalar phasetwo.H2.app[2] packetSent:sum(packetBytes) 100
attr interpolationmode none
attr source packetSent
attr title "packets sent, sum(packetBytes)"
scalar phasetwo.R1.lo[0].lo rcvdPkFromHl:count 0
attr interpolationmode none
attr source packetReceivedFromUpper
attr title "packets received from higher layer, count"
scalar phasetwo.R1.lo[0].lo rcvdPkFromHl:sum(packetBytes) 0
attr interpolationmode none
attr source packetReceivedFromUpper
attr title "packets received from higher layer, sum(packetBytes)"
scalar phasetwo.R1.lo[0].lo passedUpPk:count 0
attr interpolationmode none
attr source packetSentToUpper
attr title "packets passed to higher layer, count"
scalar phasetwo.R1.lo[0].lo passedUpPk:sum(packetBytes) 0
attr interpolationmode none
attr source packetSentToUpper
attr title "packets passed to higher layer, sum(packetBytes)"
scalar phasetwo.R1.ppp[0].ppp.queue packetPopped:count 10521
attr interpolationmode none
attr title "packet popped, count"
scalar phasetwo.R1.ppp[0].ppp.queue packetPopped:sum(packetBytes) 4422646
attr interpolationmode none
attr title "packet popped, sum(packetBytes)"
statistic phasetwo.R1.ppp[0].ppp.queue queueingTime:histogram
field count 10521
field mean 9.4414951364389
field stddev 3.1412026284421
field min 0
field max 12.767884912945
field sum 99333.970330474
field sqrsum 1041663.6573432
attr interpolationmode none
attr source queueingTime(packetPopped)
attr title "queueing times, histogram"
attr unit s
bin	-inf	0
bin	0	182
bin	0.2	50
bin	0.4	48
bin	0.6	47
bin	0.8	49
bin	1	50
bin	1.2	49
bin	1.4	53
bin	1.6	48
bin	1.8	49
bin	2	47
bin	2.2	49
bin	2.4	50
bin	2.6	51
bin	2.8	51
bin	3	49
bin	3.2	48
bin	3.4	46
bin	3.6	51
bin	3.8	48
bin	4	47
bin	4.2	47
bin	4.4	50
bin	4.6	54
bin	4.8	54
bin	5	50
bin	5.2	48
bin	5.4	47
bin	5.6	47
bin	5.8	52
bin	6	53
bin	6.2	48
bin	6.4	49
bin	6.6	46
bin	6.8	52
bin	7	49
bin	7.2	50
bin	7.4	47
bin	7.6	47
bin	7.8	48
bin	8	49
bin	8.2	64
bin	8.4	76
bin	8.6	95
bin	8.8	104
bin	9	100
bin	9.2	145
bin	9.4	238
bin	9.6	216
bin	9.8	268
bin	10	318
bin	10.2	402
bin	10.4	572
bin	10.6	607
bin	10.8	887
bin	11	771
bin	11.2	968
bin	11.4	858
bin	11.6	772
bin	11.8	594
bin	12	160
bin	12.2	96
bin	12.4	54
bin	12.6	7
bin	12.8	0
bin	13	0
bin	13.2	0
bin	13.4	0
bin	13.6	0
bin	13.8	0
bin	14	0
bin	14.2	0
bin	14.4	0
bin	14.6	0
bin	14.8	0
scalar phasetwo.R1.ppp[0].ppp.queue queueLength:max 101
attr interpolationmode sample-hold
attr source "count(packetPushed) - count(packetPopped) - count(packetRemoved) - count(packetDropped)"
attr title "queue length, max"
scalar phasetwo.R1.ppp[0].ppp.queue queueLength:timeavg 79.474096729345
attr interpolationmode sample-hold
attr source "count(packetPushed) - count(packetPopped) - count(packetRemoved) - count(packetDropped)"
attr title "queue length, timeavg"
scalar phasetwo.R1.ppp[0].ppp.queue packetPushed:count 40011
attr interpolationmode none
attr title "packet pushed, count"
scalar phasetwo.R1.ppp[0].ppp.queue packetPushed:sum(packetBytes) 15515880
attr interpolationmode none
attr title "packet pushed, sum(packetBytes)"
scalar phasetwo.R1.ppp[0].ppp.queue packetDropQueueOverflow:count 29490
attr interpolationmode none
attr source packetDropReasonIsQueueOverflow(packetDropped)
attr title "packet drops: queue overflow, count"
scalar phasetwo.R1.ppp[0].ppp.queue packetDropQueueOverflow:sum(packetBytes) 11093234
attr interpolationmode none
attr source packetDropReasonIsQueueOverflow(packetDropped)
attr title "packet drops: queue overflow, sum(packetBytes)"
scalar phasetwo.R1.ppp[0].ppp.queue packetRemoved:count 0
attr interpolationmode none
attr title "packets removed, count"
scalar phasetwo.R1.ppp[0].ppp.queue packetRemoved:sum(packetBytes) 0
attr interpolationmode none
attr title "packets removed, sum(packetBytes)"
scalar phasetwo.R1.ppp[0].ppp txPk:count 10521
attr interpolationmode none
attr source packetSentToLower
attr title "packets transmitted, count"
scalar phasetwo.R1.ppp[0].ppp txPk:sum(packetBytes) 4496293
attr interpolationmode none
attr source packetSentToLower
attr title "packets transmitted, sum(packetBytes)"
scalar phasetwo.R1.ppp[0].ppp rcvdPkFromHl:count 40011
attr interpolationmode none
attr source packetReceivedFromUpper
attr title "packets received from higher layer, count"
scalar phasetwo.R1.ppp[0].ppp rcvdPkFromHl:sum(packetBytes) 15515880
attr interpolationmode none
attr source packetReceivedFromUpper
attr title "packets received from higher layer, sum(packetBytes)"
scalar phasetwo.R1.ppp[0].ppp passedUpPk:count 327
attr interpolationmode none
attr source packetSentToUpper
attr title "packets passed to higher layer, count"
scalar phasetwo.R1.ppp[0].ppp passedUpPk:sum(packetBytes) 29640
attr interpolationmode none
attr source packetSentToUpper
attr title "packets passed to higher layer, sum(packetBytes)"
scalar phasetwo.R1.ppp[0].ppp packetDropIncorrectlyReceived:count 0
attr interpolationmode none
attr source packetDropReasonIsIncorrectlyReceived(packetDropped)
attr title "packet drop: incorrectly received, count"
scalar phasetwo.R1.ppp[0].ppp packetDropIncorrectlyReceived:sum(packetBytes) 0
attr interpolationmode none
attr source packetDropReasonIsIncorrectlyReceived(packetDropped)
attr title "packet drop: incorrectly received, sum(packetBytes)"
scalar phasetwo.R1.ppp[0].ppp packetDropInterfaceDown:count 0
attr interpolationmode none
attr source packetDropReasonIsInterfaceDown(packetDropped)
attr title "packet drop: interface down, count"
scalar phasetwo.R1.ppp[0].ppp packetDropInterfaceDown:sum(packetBytes) 0
attr interpolationmode none
attr source packetDropReasonIsInterfaceDown(packetDropped)
attr title "packet drop: interface down, sum(packetBytes)"
scalar phasetwo.R1.ppp[0].ppp rxPkOk:count 327
attr interpolationmode none
attr source rxPkOk
attr title "packets received OK, count"
scalar phasetwo.R1.ppp[0].ppp rxPkOk:sum(packetBytes) 31929
attr interpolationmode none
attr source rxPkOk
attr title "packets received OK, sum(packetBytes)"
scalar phasetwo.R1.ppp[0].ppp transmissionState:timeavg 0.89925859999991
attr interpolationmode sample-hold
attr source transmissionStateChanged
attr title "tx state, timeavg"
scalar phasetwo.R1.ppp[1].ppp.queue packetPopped:count 4770
attr interpolationmode none
attr title "packet popped, count"
scalar phasetwo.R1.ppp[1].ppp.queue packetPopped:sum(packetBytes) 1871502
attr interpolationmode none
attr title "packet popped, sum(packetBytes)"
statistic phasetwo.R1.ppp[1].ppp.queue queueingTime:histogram
field count 4770
field mean 7.29054636904
field stddev 3.8179738131576
field min 0
field max 12.711122476388
field sum 34775.906180321
field sqrsum 323052.70727003
attr interpolationmode none
attr source queueingTime(packetPopped)
attr title "queueing times, histogram"
attr unit s
bin	-inf	0
bin	0	278
bin	0.2	47
bin	0.4	47
bin	0.6	45
bin	0.8	46
bin	1	46
bin	1.2	52
bin	1.4	52
bin	1.6	50
bin	1.8	53
bin	2	45
bin	2.2	47
bin	2.4	42
bin	2.6	42
bin	2.8	44
[...]
attr source arpReplySent
attr title "ARP replies sent, sum(packetBytes)"
scalar phasetwo.R7.ipv4.arp arpRequestSent:count 0
attr source arpRequestSent
attr title "ARP request sent, count"
scalar phasetwo.R7.ipv4.arp arpRequestSent:sum(packetBytes) 0
attr source arpRequestSent
attr title "ARP request sent, sum(packetBytes)"
scalar phasetwo.R7.ipv4.arp arpResolutionFailed:count 0
attr title "ARP failed resolutions, count"
scalar phasetwo.R7.ipv4.arp arpResolutionCompleted:count 0
attr title "ARP completed resolutions, count"
scalar phasetwo.R7.ipv4.arp arpResolutionInitiated:count 0
attr title "ARP initiated resolutions, count"
scalar phasetwo.R9.lo[0].lo rcvdPkFromHl:count 0
attr interpolationmode none
attr source packetReceivedFromUpper
attr title "packets received from higher layer, count"
scalar phasetwo.R9.lo[0].lo rcvdPkFromHl:sum(packetBytes) 0
attr interpolationmode none
attr source packetReceivedFromUpper
attr title "packets received from higher layer, sum(packetBytes)"
scalar phasetwo.R9.lo[0].lo passedUpPk:count 0
attr interpolationmode none
attr source packetSentToUpper
attr title "packets passed to higher layer, count"
scalar phasetwo.R9.lo[0].lo passedUpPk:sum(packetBytes) 0
attr interpolationmode none
attr source packetSentToUpper
attr title "packets passed to higher layer, sum(packetBytes)"
scalar phasetwo.R9.ppp[0].ingressTC.mfClassifier packetPushed:count 0
attr interpolationmode none
attr title "packets pushed, count"
scalar phasetwo.R9.ppp[0].ingressTC.mfClassifier packetPushed:sum(packetBytes) 0
attr interpolationmode none
attr title "packets pushed, sum(packetBytes)"
scalar phasetwo.R9.ppp[0].ingressTC.mfClassifier packetDropped:count 0
attr interpolationmode none
attr title "packets dropped, count"
scalar phasetwo.R9.ppp[0].ingressTC.mfClassifier packetDropped:sum(packetBytes) 0
attr interpolationmode none
attr title "packets dropped, sum(packetBytes)"
scalar phasetwo.R9.ppp[0].ingressTC.mux packetDropped:count 0
attr interpolationmode none
attr title "packets dropped, count"
scalar phasetwo.R9.ppp[0].ingressTC.mux packetDropped:sum(packetBytes) 0
attr interpolationmode none
attr title "packets dropped, sum(packetBytes)"
scalar phasetwo.R9.ppp[0].ingressTC.efMarker packetMarked:count 0
attr interpolationmode none
attr source packetMarked
attr title "packets marked, count"
scalar phasetwo.R9.ppp[0].ingressTC.efMarker packetMarked:sum(packetBytes) 0
attr interpolationmode none
attr source packetMarked
attr title "packets marked, sum(packetBytes)"
scalar phasetwo.R9.ppp[0].ingressTC.af11Marker packetMarked:count 0
attr interpolationmode none
attr source packetMarked
attr title "packets marked, count"
scalar phasetwo.R9.ppp[0].ingressTC.af11Marker packetMarked:sum(packetBytes) 0
attr interpolationmode none
attr source packetMarked
attr title "packets marked, sum(packetBytes)"
scalar phasetwo.R9.ppp[0].ingressTC.af21Marker packetMarked:count 0
attr interpolationmode none
attr source packetMarked
attr title "packets marked, count"
scalar phasetwo.R9.ppp[0].ingressTC.af21Marker packetMarked:sum(packetBytes) 0
attr interpolationmode none
attr source packetMarked
attr title "packets marked, sum(packetBytes)"
scalar phasetwo.R9.ppp[0].ingressTC.af13Marker packetMarked:count 0
attr interpolationmode none
attr source packetMarked
attr title "packets marked, count"
scalar phasetwo.R9.ppp[0].ingressTC.af13Marker packetMarked:sum(packetBytes) 0
attr interpolationmode none
attr source packetMarked
attr title "packets marked, sum(packetBytes)"
scalar phasetwo.R9.ppp[0].ingressTC.af23Marker packetMarked:count 0
attr interpolationmode none
attr source packetMarked
attr title "packets marked, count"
scalar phasetwo.R9.ppp[0].ingressTC.af23Marker packetMarked:sum(packetBytes) 0
attr interpolationmode none
attr source packetMarked
attr title "packets marked, sum(packetBytes)"
scalar phasetwo.R9.ppp[0].ingressTC.join packetDropped:count 0
attr interpolationmode none
attr title "packets dropped, count"
scalar phasetwo.R9.ppp[0].ingressTC.join packetDropped:sum(packetBytes) 0
attr interpolationmode none
attr title "packets dropped, sum(packetBytes)"
scalar phasetwo.R9.ppp[0].ingressTC.beMarker packetMarked:count 2489
attr interpolationmode none
attr source packetMarked
attr title "packets marked, count"
scalar phasetwo.R9.ppp[0].ingressTC.beMarker packetMarked:sum(packetBytes) 1004526
attr interpolationmode none
attr source packetMarked
attr title "packets marked, sum(packetBytes)"
scalar phasetwo.R9.ppp[0].ingressTC.baClassifier packetPushed:count 0
attr interpolationmode none
attr title "packets pushed, count"
scalar phasetwo.R9.ppp[0].ingressTC.baClassifier packetPushed:sum(packetBytes) 0
attr interpolationmode none
attr title "packets pushed, sum(packetBytes)"
scalar phasetwo.R9.ppp[0].ingressTC.baClassifier packetDropped:count 0
attr interpolationmode none
attr title "packets dropped, count"
scalar phasetwo.R9.ppp[0].ingressTC.baClassifier packetDropped:sum(packetBytes) 0
attr interpolationmode none
attr title "packets dropped, sum(packetBytes)"
scalar phasetwo.R9.ppp[0].ingressTC.af11Marker2 packetMarked:count 0
attr interpolationmode none
attr source packetMarked
attr title "packets marked, count"
scalar phasetwo.R9.ppp[0].ingressTC.af11Marker2 packetMarked:sum(packetBytes) 0
attr interpolationmode none
attr source packetMarked
attr title "packets marked, sum(packetBytes)"
scalar phasetwo.R9.ppp[0].ingressTC.dropper packetPushed:count 773
attr interpolationmode none
attr title "packets pushed, count"
scalar phasetwo.R9.ppp[0].ingressTC.dropper packetPushed:sum(packetBytes) 377356
attr interpolationmode none
attr title "packets pushed, sum(packetBytes)"
scalar phasetwo.R9.ppp[0].ingressTC.dropper packetDropped:count 773
attr interpolationmode none
attr title "packets dropped, count"
scalar phasetwo.R9.ppp[0].ingressTC.dropper packetDropped:sum(packetBytes) 377356
attr interpolationmode none
attr title "packets dropped, sum(packetBytes)"
scalar phasetwo.R9.ppp[0].ppp.queue packetPopped:count 218
attr interpolationmode none
attr title "packet popped, count"
scalar phasetwo.R9.ppp[0].ppp.queue packetPopped:sum(packetBytes) 15532
attr interpolationmode none
attr title "packet popped, sum(packetBytes)"
statistic phasetwo.R9.ppp[0].ppp.queue queueingTime:histogram
field count 218
field mean 0.0039159398376514
field stddev 0.019259173144198
field min 0
field max 0.1725
field sum 0.853674884608
field sqrsum 0.083831657282049
attr interpolationmode none
attr source queueingTime(packetPopped)
attr title "queueing times, histogram"
attr unit s
bin	-inf	0
bin	0	206
bin	0.005	1
bin	0.01	0
bin	0.015	0
bin	0.02	1
bin	0.025	0
bin	0.03	1
bin	0.035	1
bin	0.04	0
bin	0.045	0
bin	0.05	0
bin	0.055	1
bin	0.06	1
bin	0.065	1
bin	0.07	1
bin	0.075	0
bin	0.08	0
bin	0.085	0
bin	0.09	0
bin	0.095	1
bin	0.1	0
bin	0.105	1
bin	0.11	1
bin	0.115	0
bin	0.12	0
bin	0.125	0
bin	0.13	0
bin	0.135	0
bin	0.14	0
bin	0.145	0
bin	0.15	0
bin	0.155	0
bin	0.16	0
bin	0.165	0
bin	0.17	1
bin	0.175	0
bin	0.18	0
bin	0.185	0
bin	0.19	0
bin	0.195	0
bin	0.2	0
bin	0.205	0
bin	0.21	0
bin	0.215	0
bin	0.22	0
scalar phasetwo.R9.ppp[0].ppp.queue queueLength:max 4
attr interpolationmode sample-hold
attr source "count(packetPushed) - count(packetPopped) - count(packetRemoved) - count(packetDropped)"
attr title "queue length, max"
scalar phasetwo.R9.ppp[0].ppp.queue queueLength:timeavg 0.00068298882244494
attr interpolationmode sample-hold
attr source "count(packetPushed) - count(packetPopped) - count(packetRemoved) - count(packetDropped)"
attr title "queue length, timeavg"
scalar phasetwo.R9.ppp[0].ppp.queue packetPushed:count 218
attr interpolationmode none
attr title "packet pushed, count"
scalar phasetwo.R9.ppp[0].ppp.queue packetPushed:sum(packetBytes) 15532
attr interpolationmode none
attr title "packet pushed, sum(packetBytes)"
scalar phasetwo.R9.ppp[0].ppp.queue packetDropQueueOverflow:count 0
attr interpolationmode none
attr source packetDropReasonIsQueueOverflow(packetDropped)
attr title "packet drops: queue overflow, count"
scalar phasetwo.R9.ppp[0].ppp.queue packetDropQueueOverflow:sum(packetBytes) 0
attr interpolationmode none
attr source packetDropReasonIsQueueOverflow(packetDropped)
attr title "packet drops: queue overflow, sum(packetBytes)"
scalar phasetwo.R9.ppp[0].ppp.queue packetRemoved:count 0
attr interpolationmode none
attr title "packets removed, count"
scalar phasetwo.R9.ppp[0].ppp.queue packetRemoved:sum(packetBytes) 0
attr interpolationmode none
attr title "packets removed, sum(packetBytes)"
scalar phasetwo.R9.ppp[0].ppp txPk:count 218
attr interpolationmode none
attr source packetSentToLower
attr title "packets transmitted, count"
scalar phasetwo.R9.ppp[0].ppp txPk:sum(packetBytes) 17058
attr interpolationmode none
attr source packetSentToLower
attr title "packets transmitted, sum(packetBytes)"
scalar phasetwo.R9.ppp[0].ppp rcvdPkFromHl:count 218
attr interpolationmode none
attr source packetReceivedFromUpper
attr title "packets received from higher layer, count"
scalar phasetwo.R9.ppp[0].ppp rcvdPkFromHl:sum(packetBytes) 15532
attr interpolationmode none
attr source packetReceivedFromUpper
attr title "packets received from higher layer, sum(packetBytes)"
scalar phasetwo.R9.ppp[0].ppp passedUpPk:count 2489
attr interpolationmode none
attr source packetSentToUpper
attr title "packets passed to higher layer, count"
scalar phasetwo.R9.ppp[0].ppp passedUpPk:sum(packetBytes) 1004526
attr interpolationmode none
attr source packetSentToUpper
attr title "packets passed to higher layer, sum(packetBytes)"
scalar phasetwo.R9.ppp[0].ppp packetDropIncorrectlyReceived:count 0
attr interpolationmode none
attr source packetDropReasonIsIncorrectlyReceived(packetDropped)
attr title "packet drop: incorrectly received, count"
scalar phasetwo.R9.ppp[0].ppp packetDropIncorrectlyReceived:sum(packetBytes) 0
attr interpolationmode none
attr source packetDropReasonIsIncorrectlyReceived(packetDropped)
attr title "packet drop: incorrectly received, sum(packetBytes)"
scalar phasetwo.R9.ppp[0].ppp packetDropInterfaceDown:count 0
attr interpolationmode none
attr source packetDropReasonIsInterfaceDown(packetDropped)
attr title "packet drop: interface down, count"
scalar phasetwo.R9.ppp[0].ppp packetDropInterfaceDown:sum(packetBytes) 0
attr interpolationmode none
attr source packetDropReasonIsInterfaceDown(packetDropped)
attr title "packet drop: interface down, sum(packetBytes)"
scalar phasetwo.R9.ppp[0].ppp rxPkOk:count 2489
attr interpolationmode none
attr source rxPkOk
attr title "packets received OK, count"
scalar phasetwo.R9.ppp[0].ppp rxPkOk:sum(packetBytes) 1021949
attr interpolationmode none
attr source rxPkOk
attr title "packets received OK, sum(packetBytes)"
scalar phasetwo.R9.ppp[0].ppp transmissionState:timeavg 0.0068232
attr interpolationmode sample-hold
attr source transmissionStateChanged
attr title "tx state, timeavg"
scalar phasetwo.R9.ppp[1].ppp.queue packetPopped:count 1698
attr interpolationmode none
attr title "packet popped, count"
scalar phasetwo.R9.ppp[1].ppp.queue packetPopped:sum(packetBytes) 626658
attr interpolationmode none
attr title "packet popped, sum(packetBytes)"
statistic phasetwo.R9.ppp[1].ppp.queue queueingTime:histogram
field count 1698
field mean 0.067644440047018
field stddev 0.12380880628304
field min 0
field max 0.5955
field sum 114.86025919984
field sqrsum 33.782326928184
attr interpolationmode none
attr source queueingTime(packetPopped)
attr title "queueing times, histogram"
attr unit s
bin	-inf	0
bin	0	1235
bin	0.01	2
bin	0.02	2
bin	0.03	1
bin	0.04	4
bin	0.05	2
bin	0.06	4
bin	0.07	4
bin	0.08	2
bin	0.09	2
bin	0.1	2
bin	0.11	39
bin	0.12	3
bin	0.13	1
bin	0.14	0
bin	0.15	1
bin	0.16	25
bin	0.17	2
bin	0.18	2
bin	0.19	3
bin	0.2	2
bin	0.21	170
bin	0.22	4
bin	0.23	1
bin	0.24	39
bin	0.25	1
bin	0.26	4
bin	0.27	1
bin	0.28	7
bin	0.29	2
bin	0.3	2
bin	0.31	1
bin	0.32	1
bin	0.33	1
bin	0.34	2
bin	0.35	0
bin	0.36	0
bin	0.37	86
bin	0.38	1
bin	0.39	1
bin	0.4	8
bin	0.41	15
bin	0.42	0
bin	0.43	0
bin	0.44	1
bin	0.45	0
bin	0.46	0
bin	0.47	1
bin	0.48	0
bin	0.49	3
bin	0.5	0
bin	0.51	0
bin	0.52	0
bin	0.53	0
bin	0.54	0
bin	0.55	4
bin	0.56	0
bin	0.57	1
bin	0.58	2
bin	0.59	1
bin	0.6	0
bin	0.61	0
bin	0.62	0
bin	0.63	0
bin	0.64	0
bin	0.65	0
bin	0.66	0
bin	0.67	0
bin	0.68	0
bin	0.69	0
bin	0.7	0
bin	0.71	0
bin	0.72	0
bin	0.73	0
bin	0.74	0
bin	0.75	0
scalar phasetwo.R9.ppp[1].ppp.queue queueLength:max 6
attr interpolationmode sample-hold
attr source "count(packetPushed) - count(packetPopped) - count(packetRemoved) - count(packetDropped)"
attr title "queue length, max"
scalar phasetwo.R9.ppp[1].ppp.queue queueLength:timeavg 0.091897002786409
attr interpolationmode sample-hold
attr source "count(packetPushed) - count(packetPopped) - count(packetRemoved) - count(packetDropped)"
attr title "queue length, timeavg"
scalar phasetwo.R9.ppp[1].ppp.queue packetPushed:count 1698
attr interpolationmode none
attr title "packet pushed, count"
scalar phasetwo.R9.ppp[1].ppp.queue packetPushed:sum(packetBytes) 626658
attr interpolationmode none
attr title "packet pushed, sum(packetBytes)"
scalar phasetwo.R9.ppp[1].ppp.queue packetDropQueueOverflow:count 0
attr interpolationmode none
attr source packetDropReasonIsQueueOverflow(packetDropped)
attr title "packet drops: queue overflow, count"
scalar phasetwo.R9.ppp[1].ppp.queue packetDropQueueOverflow:sum(packetBytes) 0
attr interpolationmode none
attr source packetDropReasonIsQueueOverflow(packetDropped)
attr title "packet drops: queue overflow, sum(packetBytes)"
scalar phasetwo.R9.ppp[1].ppp.queue packetRemoved:count 0
attr interpolationmode none
attr title "packets removed, count"
scalar phasetwo.R9.ppp[1].ppp.queue packetRemoved:sum(packetBytes) 0
attr interpolationmode none
attr title "packets removed, sum(packetBytes)"
scalar phasetwo.R9.ppp[1].ppp txPk:count 1698
attr interpolationmode none
attr source packetSentToLower
attr title "packets transmitted, count"
scalar phasetwo.R9.ppp[1].ppp txPk:sum(packetBytes) 638544
attr interpolationmode none
attr source packetSentToLower
attr title "packets transmitted, sum(packetBytes)"
scalar phasetwo.R9.ppp[1].ppp rcvdPkFromHl:count 1698
attr interpolationmode none
attr source packetReceivedFromUpper
attr title "packets received from higher layer, count"
scalar phasetwo.R9.ppp[1].ppp rcvdPkFromHl:sum(packetBytes) 626658
attr interpolationmode none
attr source packetReceivedFromUpper
attr title "packets received from higher layer, sum(packetBytes)"
scalar phasetwo.R9.ppp[1].ppp passedUpPk:count 224
attr interpolationmode none
attr source packetSentToUpper
attr title "packets passed to higher layer, count"
scalar phasetwo.R9.ppp[1].ppp passedUpPk:sum(packetBytes) 15760
attr interpolationmode none
attr source packetSentToUpper
attr title "packets passed to higher layer, sum(packetBytes)"
scalar phasetwo.R9.ppp[1].ppp packetDropIncorrectlyReceived:count 0
attr interpolationmode none
attr source packetDropReasonIsIncorrectlyReceived(packetDropped)
attr title "packet drop: incorrectly received, count"
scalar phasetwo.R9.ppp[1].ppp packetDropIncorrectlyReceived:sum(packetBytes) 0
attr interpolationmode none
attr source packetDropReasonIsIncorrectlyReceived(packetDropped)
attr title "packet drop: incorrectly received, sum(packetBytes)"
scalar phasetwo.R9.ppp[1].ppp packetDropInterfaceDown:count 0
attr interpolationmode none
attr source packetDropReasonIsInterfaceDown(packetDropped)
attr title "packet drop: interface down, count"
scalar phasetwo.R9.ppp[1].ppp packetDropInterfaceDown:sum(packetBytes) 0
attr interpolationmode none
attr source packetDropReasonIsInterfaceDown(packetDropped)
attr title "packet drop: interface down, sum(packetBytes)"
scalar phasetwo.R9.ppp[1].ppp rxPkOk:count 224
attr interpolationmode none
attr source rxPkOk
attr title "packets received OK, count"
scalar phasetwo.R9.ppp[1].ppp rxPkOk:sum(packetBytes) 17328
attr interpolationmode none
attr source rxPkOk
attr title "packets received OK, sum(packetBytes)"
scalar phasetwo.R9.ppp[1].ppp transmissionState:timeavg 0.2554176
attr interpolationmode sample-hold
attr source transmissionStateChanged
attr title "tx state, timeavg"
scalar phasetwo.R9.ipv4.ip packetDropAddressResolutionFailed:count 0
attr interpolationmode none
attr source packetDropReasonIsAddressResolutionFailed(packetDropped)
attr title "packet drop: address resolution failed, count"
scalar phasetwo.R9.ipv4.ip packetDropAddressResolutionFailed:sum(packetBytes) 0
attr interpolationmode none
attr source packetDropReasonIsAddressResolutionFailed(packetDropped)
attr title "packet drop: address resolution failed, sum(packetBytes)"
scalar phasetwo.R9.ipv4.ip packetDropHopLimitReached:count 0
attr interpolationmode none
attr source packetDropReasonIsHopLimitReached(packetDropped)
attr title "packet drop: hop limit reached, count"
scalar phasetwo.R9.ipv4.ip packetDropHopLimitReached:sum(packetBytes) 0
attr interpolationmode none
attr source packetDropReasonIsHopLimitReached(packetDropped)
attr title "packet drop: hop limit reached, sum(packetBytes)"
scalar phasetwo.R9.ipv4.ip packetDropForwardingDisabled:count 0
attr interpolationmode none
attr source packetDropReasonIsForwardingDisabled(packetDropped)
attr title "packet drop: forwarding disabled, count"
scalar phasetwo.R9.ipv4.ip packetDropForwardingDisabled:sum(packetBytes) 0
attr interpolationmode none
attr source packetDropReasonIsForwardingDisabled(packetDropped)
attr title "packet drop: forwarding disabled, sum(packetBytes)"
scalar phasetwo.R9.ipv4.ip packetDropNoInterfaceFound:count 0
attr interpolationmode none
attr source packetDropReasonIsNoInterfaceFound(packetDropped)
attr title "packet drop: no interface found, count"
scalar phasetwo.R9.ipv4.ip packetDropNoInterfaceFound:sum(packetBytes) 0
attr interpolationmode none
attr source packetDropReasonIsNoInterfaceFound(packetDropped)
attr title "packet drop: no interface found, sum(packetBytes)"
scalar phasetwo.R9.ipv4.ip packetDropNoRouteFound:count 0
attr interpolationmode none
attr source packetDropReasonIsNoRouteFound(packetDropped)
attr title "packet drop: no route found, count"
scalar phasetwo.R9.ipv4.ip packetDropNoRouteFound:sum(packetBytes) 0
attr interpolationmode none
attr source packetDropReasonIsNoRouteFound(packetDropped)
attr title "packet drop: no route found, sum(packetBytes)"
scalar phasetwo.R9.ipv4.ip packetDropUndefined:count 0
attr interpolationmode none
attr source packetDropReasonIsUndefined(packetDropped)
attr title "packet drop: undefined, count"
scalar phasetwo.R9.ipv4.ip packetDropUndefined:sum(packetBytes) 0
attr interpolationmode none
attr source packetDropReasonIsUndefined(packetDropped)
attr title "packet drop: undefined, sum(packetBytes)"
scalar phasetwo.R9.ipv4.arp arpReplySent:count 0
attr source arpReplySent
attr title "ARP replies sent, count"
scalar phasetwo.R9.ipv4.arp arpReplySent:sum(packetBytes) 0
attr source arpReplySent
attr title "ARP replies sent, sum(packetBytes)"
scalar phasetwo.R9.ipv4.arp arpRequestSent:count 0
attr source arpRequestSent
attr title "ARP request sent, count"
scalar phasetwo.R9.ipv4.arp arpRequestSent:sum(packetBytes) 0
attr source arpRequestSent
attr title "ARP request sent, sum(packetBytes)"
scalar phasetwo.R9.ipv4.arp arpResolutionFailed:count 0
attr title "ARP failed resolutions, count"
scalar phasetwo.R9.ipv4.arp arpResolutionCompleted:count 0
attr title "ARP completed resolutions, count"
scalar phasetwo.R9.ipv4.arp arpResolutionInitiated:count 0
attr title "ARP initiated resolutions, count"

